data/pglib_opf_case3970_goc_storage.m
%%%%%%%%%%%%%%%%%%%%%%%%%%%%%%%%%%%%%%%%%%%%%%%%%%%%%%%%%%%%%%%%%%%%%%%%%%%
%%%%                                                                  %%%%%
%%%%    IEEE PES Power Grid Library - Optimal Power Flow - v23.07     %%%%%
%%%%          (https://github.com/power-grid-lib/pglib-opf)           %%%%%
%%%%               Benchmark Group - Typical Operations               %%%%%
%%%%                         23 - July - 2023                         %%%%%
%%%%                                                                  %%%%%
%%%%%%%%%%%%%%%%%%%%%%%%%%%%%%%%%%%%%%%%%%%%%%%%%%%%%%%%%%%%%%%%%%%%%%%%%%%
%
%   This is a synthetic 3,970 bus case, developed for use in ARPA-e's Grid
%   Optimization Competition, Challenge 1.
%
%   https://gocompetition.energy.gov/challenges/22/datasets
%
%   Copyright (c) 2020 University of Wisconsin-Madison
%   https://dev.epigrids.discovery.wisc.edu/
%   Licensed under the Creative Commons Attribution 4.0 International license,
%   http://creativecommons.org/licenses/by/4.0/
%
% Modified to have additional storage capacity and increased gencost
function mpc = pglib_opf_case3970_goc
mpc.version = '2';
mpc.baseMVA = 100.0;

%% bus data
%	bus_i	type	Pd	Qd	Gs	Bs	area	Vm	Va	baseKV	zone	Vmax	Vmin
mpc.bus = [
	1	 1	 0.0	 0.0	 0.0	 0.0	 1	    1.00000	    0.00000	 69.0	 1	    1.10000	    0.90000;
	2	 2	 0.0	 0.0	 0.0	 0.0	 1	    1.00000	    0.00000	 138.0	 1	    1.10000	    0.90000;
	3	 1	 0.0	 0.0	 0.0	 0.0	 1	    1.00000	    0.00000	 69.0	 1	    1.10000	    0.90000;
	4	 1	 0.0	 0.0	 0.0	 0.0	 1	    1.00000	    0.00000	 69.0	 1	    1.10000	    0.90000;
	5	 1	 0.0	 0.0	 0.0	 0.0	 1	    1.00000	    0.00000	 138.0	 1	    1.10000	    0.90000;
	6	 1	 0.0	 0.0	 0.0	 0.0	 1	    1.00000	    0.00000	 69.0	 1	    1.10000	    0.90000;
	7	 1	 0.0	 0.0	 0.0	 0.0	 1	    1.00000	    0.00000	 69.0	 1	    1.10000	    0.90000;
	8	 1	 0.0	 0.0	 0.0	 0.0	 1	    1.00000	    0.00000	 69.0	 1	    1.10000	    0.90000;
	9	 1	 0.0	 0.0	 0.0	 0.0	 1	    1.00000	    0.00000	 69.0	 1	    1.10000	    0.90000;
	10	 1	 0.0	 0.0	 0.0	 0.0	 1	    1.00000	    0.00000	 69.0	 1	    1.10000	    0.90000;
	11	 2	 0.0	 0.0	 0.0	 0.0	 1	    1.00000	    0.00000	 69.0	 1	    1.10000	    0.90000;
	12	 1	 0.0	 0.0	 0.0	 0.0	 1	    1.00000	    0.00000	 69.0	 1	    1.10000	    0.90000;
	13	 1	 0.0	 0.0	 0.0	 0.0	 1	    1.00000	    0.00000	 69.0	 1	    1.10000	    0.90000;
	14	 1	 0.0	 0.0	 0.0	 0.0	 1	    1.00000	    0.00000	 69.0	 1	    1.10000	    0.90000;
	15	 1	 0.0	 0.0	 0.0	 0.0	 1	    1.00000	    0.00000	 69.0	 1	    1.10000	    0.90000;
	16	 1	 0.0	 0.0	 0.0	 0.0	 1	    1.00000	    0.00000	 69.0	 1	    1.10000	    0.90000;
	17	 1	 0.0	 0.0	 0.0	 0.0	 1	    1.00000	    0.00000	 69.0	 1	    1.10000	    0.90000;
	18	 1	 0.0	 0.0	 0.0	 0.0	 1	    1.00000	    0.00000	 69.0	 1	    1.10000	    0.90000;
	19	 2	 0.0	 0.0	 0.0	 0.0	 1	    1.00000	    0.00000	 69.0	 1	    1.10000	    0.90000;
	20	 2	 0.0	 0.0	 0.0	 0.0	 1	    1.00000	    0.00000	 138.0	 1	    1.10000	    0.90000;
	21	 2	 0.0	 0.0	 0.0	 0.0	 1	    1.00000	    0.00000	 69.0	 1	    1.10000	    0.90000;
	22	 1	 0.0	 0.0	 0.0	 0.0	 1	    1.00000	    0.00000	 69.0	 1	    1.10000	    0.90000;
	23	 1	 0.0	 0.0	 0.0	 0.0	 1	    1.00000	    0.00000	 69.0	 1	    1.10000	    0.90000;
	24	 2	 0.0	 0.0	 0.0	 0.0	 1	    1.00000	    0.00000	 138.0	 1	    1.10000	    0.90000;
	25	 2	 0.0	 0.0	 0.0	 0.0	 1	    1.00000	    0.00000	 69.0	 1	    1.10000	    0.90000;
	26	 2	 0.0	 0.0	 0.0	 0.0	 1	    1.00000	    0.00000	 69.0	 1	    1.10000	    0.90000;
	28	 1	 0.0	 0.0	 0.0	 0.0	 1	    1.00000	    0.00000	 69.0	 1	    1.10000	    0.90000;
	29	 2	 0.0	 0.0	 0.0	 0.0	 1	    1.00000	    0.00000	 69.0	 1	    1.10000	    0.90000;
	30	 2	 0.0	 0.0	 0.0	 0.0	 1	    1.00000	    0.00000	 69.0	 1	    1.10000	    0.90000;
	31	 2	 0.0	 0.0	 0.0	 0.0	 1	    1.00000	    0.00000	 69.0	 1	    1.10000	    0.90000;
	32	 1	 0.0	 0.0	 0.0	 0.0	 1	    1.00000	    0.00000	 69.0	 1	    1.10000	    0.90000;
	33	 1	 0.0	 0.0	 0.0	 0.0	 1	    1.00000	    0.00000	 69.0	 1	    1.10000	    0.90000;
	34	 1	 0.0	 0.0	 0.0	 0.0	 1	    1.00000	    0.00000	 69.0	 1	    1.10000	    0.90000;
	35	 1	 0.0	 0.0	 0.0	 0.0	 1	    1.00000	    0.00000	 69.0	 1	    1.10000	    0.90000;
	36	 1	 0.0	 0.0	 0.0	 0.0	 1	    1.00000	    0.00000	 69.0	 1	    1.10000	    0.90000;
	37	 1	 0.0	 0.0	 0.0	 0.0	 1	    1.00000	    0.00000	 69.0	 1	    1.10000	    0.90000;
	38	 1	 0.0	 0.0	 0.0	 0.0	 1	    1.00000	    0.00000	 69.0	 1	    1.10000	    0.90000;
	39	 1	 0.0	 0.0	 0.0	 0.0	 1	    1.00000	    0.00000	 69.0	 1	    1.10000	    0.90000;
	40	 1	 0.0	 0.0	 0.0	 0.0	 1	    1.00000	    0.00000	 69.0	 1	    1.10000	    0.90000;
	41	 1	 0.0	 0.0	 0.0	 0.0	 1	    1.00000	    0.00000	 69.0	 1	    1.10000	    0.90000;
	42	 1	 0.0	 0.0	 0.0	 0.0	 1	    1.00000	    0.00000	 69.0	 1	    1.10000	    0.90000;
	43	 1	 0.0	 0.0	 0.0	 0.0	 1	    1.00000	    0.00000	 69.0	 1	    1.10000	    0.90000;
	44	 1	 0.0	 0.0	 0.0	 0.0	 1	    1.00000	    0.00000	 69.0	 1	    1.10000	    0.90000;
	45	 1	 0.0	 0.0	 0.0	 0.0	 1	    1.00000	    0.00000	 69.0	 1	    1.10000	    0.90000;
	46	 1	 0.0	 0.0	 0.0	 0.0	 1	    1.00000	    0.00000	 69.0	 1	    1.10000	    0.90000;
	47	 1	 0.0	 0.0	 0.0	 0.0	 1	    1.00000	    0.00000	 138.0	 1	    1.10000	    0.90000;
	48	 1	 0.0	 0.0	 0.0	 0.0	 1	    1.00000	    0.00000	 69.0	 1	    1.10000	    0.90000;
	49	 1	 0.0	 0.0	 0.0	 0.0	 1	    1.00000	    0.00000	 69.0	 1	    1.10000	    0.90000;
	51	 1	 0.0	 0.0	 0.0	 0.0	 1	    1.00000	    0.00000	 69.0	 1	    1.10000	    0.90000;
	52	 1	 0.0	 0.0	 0.0	 0.0	 1	    1.00000	    0.00000	 69.0	 1	    1.10000	    0.90000;
	53	 2	 0.0	 0.0	 0.0	 0.0	 1	    1.00000	    0.00000	 69.0	 1	    1.10000	    0.90000;
	54	 1	 0.0	 0.0	 0.0	 0.0	 1	    1.00000	    0.00000	 69.0	 1	    1.10000	    0.90000;
	55	 2	 0.0	 0.0	 0.0	 0.0	 1	    1.00000	    0.00000	 69.0	 1	    1.10000	    0.90000;
	56	 1	 0.0	 0.0	 0.0	 0.0	 1	    1.00000	    0.00000	 69.0	 1	    1.10000	    0.90000;
	57	 2	 0.0	 0.0	 0.0	 0.0	 1	    1.00000	    0.00000	 69.0	 1	    1.10000	    0.90000;
	58	 1	 0.0	 0.0	 0.0	 0.0	 1	    1.00000	    0.00000	 69.0	 1	    1.10000	    0.90000;
	59	 1	 0.0	 0.0	 0.0	 0.0	 1	    1.00000	    0.00000	 69.0	 1	    1.10000	    0.90000;
	60	 1	 0.0	 0.0	 0.0	 0.0	 1	    1.00000	    0.00000	 69.0	 1	    1.10000	    0.90000;
	61	 1	 0.0	 0.0	 0.0	 0.0	 1	    1.00000	    0.00000	 69.0	 1	    1.10000	    0.90000;
	62	 2	 0.0	 0.0	 0.0	 0.0	 1	    1.00000	    0.00000	 69.0	 1	    1.10000	    0.90000;
	63	 2	 0.0	 0.0	 0.0	 0.0	 1	    1.00000	    0.00000	 138.0	 1	    1.10000	    0.90000;
	64	 1	 0.0	 0.0	 0.0	 0.0	 1	    1.00000	    0.00000	 69.0	 1	    1.10000	    0.90000;
	65	 2	 0.0	 0.0	 0.0	 0.0	 1	    1.00000	    0.00000	 69.0	 1	    1.10000	    0.90000;
	66	 2	 0.0	 0.0	 0.0	 0.0	 1	    1.00000	    0.00000	 69.0	 1	    1.10000	    0.90000;
	67	 1	 0.0	 0.0	 0.0	 0.0	 1	    1.00000	    0.00000	 69.0	 1	    1.10000	    0.90000;
	68	 2	 0.0	 0.0	 0.0	 0.0	 1	    1.00000	    0.00000	 69.0	 1	    1.10000	    0.90000;
	69	 1	 0.0	 0.0	 0.0	 0.0	 1	    1.00000	    0.00000	 69.0	 1	    1.10000	    0.90000;
	70	 2	 0.0	 0.0	 0.0	 0.0	 1	    1.00000	    0.00000	 69.0	 1	    1.10000	    0.90000;
	72	 1	 0.0	 0.0	 0.0	 0.0	 1	    1.00000	    0.00000	 69.0	 1	    1.10000	    0.90000;
	73	 2	 0.0	 0.0	 0.0	 0.0	 1	    1.00000	    0.00000	 69.0	 1	    1.10000	    0.90000;
	74	 1	 0.0	 0.0	 0.0	 0.0	 1	    1.00000	    0.00000	 69.0	 1	    1.10000	    0.90000;
	75	 1	 0.0	 0.0	 0.0	 0.0	 1	    1.00000	    0.00000	 69.0	 1	    1.10000	    0.90000;
	76	 2	 0.0	 0.0	 0.0	 0.0	 1	    1.00000	    0.00000	 138.0	 1	    1.10000	    0.90000;
	77	 1	 0.0	 0.0	 0.0	 0.0	 1	    1.00000	    0.00000	 69.0	 1	    1.10000	    0.90000;
	78	 1	 0.0	 0.0	 0.0	 0.0	 1	    1.00000	    0.00000	 69.0	 1	    1.10000	    0.90000;
	79	 2	 0.0	 0.0	 0.0	 0.0	 1	    1.00000	    0.00000	 138.0	 1	    1.10000	    0.90000;
	80	 1	 0.0	 0.0	 0.0	 0.0	 1	    1.00000	    0.00000	 69.0	 1	    1.10000	    0.90000;
	81	 1	 0.0	 0.0	 0.0	 0.0	 1	    1.00000	    0.00000	 69.0	 1	    1.10000	    0.90000;
	82	 1	 0.0	 0.0	 0.0	 0.0	 1	    1.00000	    0.00000	 69.0	 1	    1.10000	    0.90000;
	83	 1	 0.0	 0.0	 0.0	 0.0	 1	    1.00000	    0.00000	 69.0	 1	    1.10000	    0.90000;
	84	 1	 0.0	 0.0	 0.0	 0.0	 1	    1.00000	    0.00000	 69.0	 1	    1.10000	    0.90000;
	85	 1	 0.0	 0.0	 0.0	 0.0	 1	    1.00000	    0.00000	 138.0	 1	    1.10000	    0.90000;
	86	 1	 0.0	 0.0	 0.0	 0.0	 1	    1.00000	    0.00000	 69.0	 1	    1.10000	    0.90000;
	89	 1	 0.0	 0.0	 0.0	 0.0	 1	    1.00000	    0.00000	 69.0	 1	    1.10000	    0.90000;
	90	 1	 0.0	 0.0	 0.0	 0.0	 1	    1.00000	    0.00000	 69.0	 1	    1.10000	    0.90000;
	91	 2	 0.0	 0.0	 0.0	 0.0	 1	    1.00000	    0.00000	 69.0	 1	    1.10000	    0.90000;
	93	 1	 0.0	 0.0	 0.0	 0.0	 1	    1.00000	    0.00000	 69.0	 1	    1.10000	    0.90000;
	94	 1	 0.0	 0.0	 0.0	 0.0	 1	    1.00000	    0.00000	 69.0	 1	    1.10000	    0.90000;
	96	 1	 0.0	 0.0	 0.0	 0.0	 1	    1.00000	    0.00000	 69.0	 1	    1.10000	    0.90000;
	97	 2	 0.0	 0.0	 0.0	 0.0	 1	    1.00000	    0.00000	 69.0	 1	    1.10000	    0.90000;
	98	 1	 0.0	 0.0	 0.0	 0.0	 1	    1.00000	    0.00000	 69.0	 1	    1.10000	    0.90000;
	99	 1	 0.0	 0.0	 0.0	 0.0	 1	    1.00000	    0.00000	 69.0	 1	    1.10000	    0.90000;
	100	 1	 0.0	 0.0	 0.0	 0.0	 1	    1.00000	    0.00000	 69.0	 1	    1.10000	    0.90000;
	101	 2	 0.0	 0.0	 0.0	 0.0	 1	    1.00000	    0.00000	 69.0	 1	    1.10000	    0.90000;
	102	 2	 0.0	 0.0	 0.0	 0.0	 1	    1.00000	    0.00000	 138.0	 1	    1.10000	    0.90000;
	103	 1	 0.0	 0.0	 0.0	 0.0	 1	    1.00000	    0.00000	 69.0	 1	    1.10000	    0.90000;
	105	 1	 0.0	 0.0	 0.0	 0.0	 1	    1.00000	    0.00000	 69.0	 1	    1.10000	    0.90000;
	106	 1	 0.0	 0.0	 0.0	 0.0	 1	    1.00000	    0.00000	 138.0	 1	    1.10000	    0.90000;
	107	 1	 0.0	 0.0	 0.0	 0.0	 1	    1.00000	    0.00000	 69.0	 1	    1.10000	    0.90000;
	108	 1	 0.0	 0.0	 0.0	 0.0	 1	    1.00000	    0.00000	 69.0	 1	    1.10000	    0.90000;
	109	 1	 0.0	 0.0	 0.0	 0.0	 1	    1.00000	    0.00000	 69.0	 1	    1.10000	    0.90000;
	110	 1	 0.0	 0.0	 0.0	 0.0	 1	    1.00000	    0.00000	 69.0	 1	    1.10000	    0.90000;
	111	 1	 0.0	 0.0	 0.0	 0.0	 1	    1.00000	    0.00000	 69.0	 1	    1.10000	    0.90000;
	112	 2	 0.0	 0.0	 0.0	 0.0	 1	    1.00000	    0.00000	 69.0	 1	    1.10000	    0.90000;
	113	 2	 0.0	 0.0	 0.0	 0.0	 1	    1.00000	    0.00000	 69.0	 1	    1.10000	    0.90000;
	114	 2	 0.0	 0.0	 0.0	 0.0	 1	    1.00000	    0.00000	 69.0	 1	    1.10000	    0.90000;
	115	 1	 0.0	 0.0	 0.0	 0.0	 1	    1.00000	    0.00000	 69.0	 1	    1.10000	    0.90000;
	116	 1	 0.0	 0.0	 0.0	 0.0	 1	    1.00000	    0.00000	 69.0	 1	    1.10000	    0.90000;
	117	 1	 0.0	 0.0	 0.0	 0.0	 1	    1.00000	    0.00000	 69.0	 1	    1.10000	    0.90000;
	118	 1	 0.0	 0.0	 0.0	 0.0	 1	    1.00000	    0.00000	 69.0	 1	    1.10000	    0.90000;
	119	 1	 0.0	 0.0	 0.0	 0.0	 1	    1.00000	    0.00000	 69.0	 1	    1.10000	    0.90000;
	120	 1	 0.0	 0.0	 0.0	 0.0	 1	    1.00000	    0.00000	 69.0	 1	    1.10000	    0.90000;
	121	 1	 0.0	 0.0	 0.0	 0.0	 1	    1.00000	    0.00000	 69.0	 1	    1.10000	    0.90000;
	122	 1	 0.0	 0.0	 0.0	 0.0	 1	    1.00000	    0.00000	 69.0	 1	    1.10000	    0.90000;
	123	 2	 0.0	 0.0	 0.0	 0.0	 1	    1.00000	    0.00000	 69.0	 1	    1.10000	    0.90000;
	124	 1	 0.0	 0.0	 0.0	 0.0	 1	    1.00000	    0.00000	 69.0	 1	    1.10000	    0.90000;
	125	 1	 0.0	 0.0	 0.0	 0.0	 1	    1.00000	    0.00000	 69.0	 1	    1.10000	    0.90000;
	126	 2	 0.0	 0.0	 0.0	 0.0	 1	    1.00000	    0.00000	 69.0	 1	    1.10000	    0.90000;
	127	 1	 0.0	 0.0	 0.0	 0.0	 1	    1.00000	    0.00000	 69.0	 1	    1.10000	    0.90000;
	128	 2	 0.0	 0.0	 0.0	 0.0	 1	    1.00000	    0.00000	 69.0	 1	    1.10000	    0.90000;
	129	 2	 0.0	 0.0	 0.0	 0.0	 1	    1.00000	    0.00000	 69.0	 1	    1.10000	    0.90000;
	130	 1	 0.0	 0.0	 0.0	 0.0	 1	    1.00000	    0.00000	 69.0	 1	    1.10000	    0.90000;
	131	 1	 0.0	 0.0	 0.0	 0.0	 1	    1.00000	    0.00000	 69.0	 1	    1.10000	    0.90000;
	135	 1	 4.68	 0.68	 0.0	 0.0	 1	    1.00000	    0.00000	 69.0	 1	    1.10000	    0.90000;
	141	 1	 7.79	 1.12	 0.0	 0.0	 1	    1.00000	    0.00000	 69.0	 1	    1.10000	    0.90000;
	142	 1	 4.25	 0.76	 0.0	 0.0	 1	    1.00000	    0.00000	 69.0	 1	    1.10000	    0.90000;
	143	 1	 7.96	 0.8	 0.0	 0.0	 1	    1.00000	    0.00000	 69.0	 1	    1.10000	    0.90000;
	144	 1	 7.4	 1.32	 0.0	 0.0	 1	    1.00000	    0.00000	 69.0	 1	    1.10000	    0.90000;
	147	 1	 13.64	 1.97	 0.0	 0.0	 1	    1.00000	    0.00000	 69.0	 1	    1.10000	    0.90000;
	151	 1	 4.28	 0.43	 0.0	 0.0	 1	    1.00000	    0.00000	 69.0	 1	    1.10000	    0.90000;
	152	 1	 7.21	 1.29	 0.0	 0.0	 1	    1.00000	    0.00000	 69.0	 1	    1.10000	    0.90000;
	154	 1	 6.41	 0.65	 0.0	 0.0	 1	    1.00000	    0.00000	 69.0	 1	    1.10000	    0.90000;
	155	 1	 7.24	 1.04	 0.0	 0.0	 1	    1.00000	    0.00000	 69.0	 1	    1.10000	    0.90000;
	157	 1	 8.36	 1.21	 0.0	 0.0	 1	    1.00000	    0.00000	 69.0	 1	    1.10000	    0.90000;
	159	 1	 15.62	 2.25	 0.0	 0.0	 1	    1.00000	    0.00000	 69.0	 1	    1.10000	    0.90000;
	160	 1	 35.43	 6.33	 0.0	 0.0	 1	    1.00000	    0.00000	 69.0	 1	    1.10000	    0.90000;
	161	 1	 8.63	 1.54	 0.0	 0.0	 1	    1.00000	    0.00000	 69.0	 1	    1.10000	    0.90000;
	162	 1	 23.53	 2.38	 0.0	 0.0	 1	    1.00000	    0.00000	 69.0	 1	    1.10000	    0.90000;
	163	 1	 12.93	 2.31	 0.0	 0.0	 1	    1.00000	    0.00000	 69.0	 1	    1.10000	    0.90000;
	165	 1	 8.96	 1.6	 0.0	 0.0	 1	    1.00000	    0.00000	 69.0	 1	    1.10000	    0.90000;
	166	 1	 4.99	 0.5	 0.0	 0.0	 1	    1.00000	    0.00000	 69.0	 1	    1.10000	    0.90000;
	167	 1	 4.02	 0.72	 0.0	 0.0	 1	    1.00000	    0.00000	 69.0	 1	    1.10000	    0.90000;
	168	 1	 14.06	 1.42	 0.0	 0.0	 1	    1.00000	    0.00000	 69.0	 1	    1.10000	    0.90000;
	169	 1	 12.42	 1.79	 0.0	 0.0	 1	    1.00000	    0.00000	 69.0	 1	    1.10000	    0.90000;
	170	 1	 25.27	 2.55	 0.0	 0.0	 1	    1.00000	    0.00000	 69.0	 1	    1.10000	    0.90000;
	172	 1	 5.46	 0.55	 0.0	 0.0	 1	    1.00000	    0.00000	 69.0	 1	    1.10000	    0.90000;
	173	 1	 6.64	 0.67	 0.0	 0.0	 1	    1.00000	    0.00000	 69.0	 1	    1.10000	    0.90000;
	174	 1	 3.72	 0.54	 0.0	 0.0	 1	    1.00000	    0.00000	 69.0	 1	    1.10000	    0.90000;
	175	 1	 5.91	 0.6	 0.0	 0.0	 1	    1.00000	    0.00000	 69.0	 1	    1.10000	    0.90000;
	176	 1	 5.44	 0.79	 0.0	 0.0	 1	    1.00000	    0.00000	 69.0	 1	    1.10000	    0.90000;
	177	 1	 19.19	 2.77	 0.0	 0.0	 1	    1.00000	    0.00000	 69.0	 1	    1.10000	    0.90000;
	179	 1	 8.24	 1.47	 0.0	 0.0	 1	    1.00000	    0.00000	 69.0	 1	    1.10000	    0.90000;
	181	 1	 3.97	 0.57	 0.0	 0.0	 1	    1.00000	    0.00000	 69.0	 1	    1.10000	    0.90000;
	182	 1	 9.36	 1.35	 0.0	 0.0	 1	    1.00000	    0.00000	 69.0	 1	    1.10000	    0.90000;
	183	 1	 9.91	 1.43	 0.0	 0.0	 1	    1.00000	    0.00000	 69.0	 1	    1.10000	    0.90000;
	184	 1	 4.98	 0.89	 0.0	 0.0	 1	    1.00000	    0.00000	 69.0	 1	    1.10000	    0.90000;
	187	 1	 9.12	 1.63	 0.0	 0.0	 1	    1.00000	    0.00000	 69.0	 1	    1.10000	    0.90000;
	188	 1	 3.65	 0.37	 0.0	 0.0	 1	    1.00000	    0.00000	 69.0	 1	    1.10000	    0.90000;
	190	 1	 7.79	 1.39	 0.0	 0.0	 1	    1.00000	    0.00000	 69.0	 1	    1.10000	    0.90000;
	191	 1	 4.19	 0.42	 0.0	 0.0	 1	    1.00000	    0.00000	 69.0	 1	    1.10000	    0.90000;
	192	 1	 2.69	 0.27	 0.0	 0.0	 1	    1.00000	    0.00000	 69.0	 1	    1.10000	    0.90000;
	193	 1	 8.71	 0.88	 0.0	 0.0	 1	    1.00000	    0.00000	 69.0	 1	    1.10000	    0.90000;
	194	 1	 12.68	 1.28	 0.0	 0.0	 1	    1.00000	    0.00000	 69.0	 1	    1.10000	    0.90000;
	195	 1	 4.77	 0.85	 0.0	 0.0	 1	    1.00000	    0.00000	 69.0	 1	    1.10000	    0.90000;
	196	 1	 5.46	 0.79	 0.0	 0.0	 1	    1.00000	    0.00000	 69.0	 1	    1.10000	    0.90000;
	197	 1	 5.12	 0.91	 0.0	 0.0	 1	    1.00000	    0.00000	 69.0	 1	    1.10000	    0.90000;
	198	 1	 7.57	 1.35	 0.0	 0.0	 1	    1.00000	    0.00000	 69.0	 1	    1.10000	    0.90000;
	199	 1	 3.99	 0.58	 0.0	 0.0	 1	    1.00000	    0.00000	 69.0	 1	    1.10000	    0.90000;
	204	 1	 8.39	 1.5	 0.0	 0.0	 1	    1.00000	    0.00000	 69.0	 1	    1.10000	    0.90000;
	208	 1	 3.58	 0.52	 0.0	 0.0	 1	    1.00000	    0.00000	 69.0	 1	    1.10000	    0.90000;
	209	 1	 4.94	 0.88	 0.0	 0.0	 1	    1.00000	    0.00000	 69.0	 1	    1.10000	    0.90000;
	210	 1	 10.94	 1.95	 0.0	 0.0	 1	    1.00000	    0.00000	 69.0	 1	    1.10000	    0.90000;
	211	 1	 3.97	 0.57	 0.0	 0.0	 1	    1.00000	    0.00000	 69.0	 1	    1.10000	    0.90000;
	212	 1	 4.14	 0.42	 0.0	 0.0	 1	    1.00000	    0.00000	 69.0	 1	    1.10000	    0.90000;
	213	 1	 2.92	 0.29	 0.0	 0.0	 1	    1.00000	    0.00000	 69.0	 1	    1.10000	    0.90000;
	214	 1	 5.31	 0.95	 0.0	 0.0	 1	    1.00000	    0.00000	 69.0	 1	    1.10000	    0.90000;
	215	 1	 3.82	 0.55	 0.0	 0.0	 1	    1.00000	    0.00000	 69.0	 1	    1.10000	    0.90000;
	217	 1	 12.76	 1.29	 0.0	 0.0	 1	    1.00000	    0.00000	 69.0	 1	    1.10000	    0.90000;
	218	 1	 3.57	 0.52	 0.0	 0.0	 1	    1.00000	    0.00000	 69.0	 1	    1.10000	    0.90000;
	219	 1	 3.88	 0.69	 0.0	 0.0	 1	    1.00000	    0.00000	 69.0	 1	    1.10000	    0.90000;
	220	 1	 2.48	 0.44	 0.0	 0.0	 1	    1.00000	    0.00000	 69.0	 1	    1.10000	    0.90000;
	221	 1	 5.23	 0.53	 0.0	 0.0	 1	    1.00000	    0.00000	 69.0	 1	    1.10000	    0.90000;
	222	 1	 15.83	 2.28	 0.0	 0.0	 1	    1.00000	    0.00000	 69.0	 1	    1.10000	    0.90000;
	223	 1	 1.87	 0.33	 0.0	 0.0	 1	    1.00000	    0.00000	 69.0	 1	    1.10000	    0.90000;
	224	 1	 2.14	 0.31	 0.0	 0.0	 1	    1.00000	    0.00000	 69.0	 1	    1.10000	    0.90000;
	225	 1	 7.17	 0.72	 0.0	 0.0	 1	    1.00000	    0.00000	 69.0	 1	    1.10000	    0.90000;
	228	 1	 4.26	 0.61	 0.0	 0.0	 1	    1.00000	    0.00000	 69.0	 1	    1.10000	    0.90000;
	229	 1	 7.48	 1.34	 0.0	 0.0	 1	    1.00000	    0.00000	 69.0	 1	    1.10000	    0.90000;
	230	 1	 7.22	 1.29	 0.0	 0.0	 1	    1.00000	    0.00000	 69.0	 1	    1.10000	    0.90000;
	231	 1	 6.5	 0.94	 0.0	 0.0	 1	    1.00000	    0.00000	 69.0	 1	    1.10000	    0.90000;
	232	 1	 9.81	 0.99	 0.0	 0.0	 1	    1.00000	    0.00000	 69.0	 1	    1.10000	    0.90000;
	233	 1	 7.17	 1.03	 0.0	 0.0	 1	    1.00000	    0.00000	 69.0	 1	    1.10000	    0.90000;
	234	 1	 31.36	 4.53	 0.0	 0.0	 1	    1.00000	    0.00000	 69.0	 1	    1.10000	    0.90000;
	236	 1	 3.41	 0.61	 0.0	 0.0	 1	    1.00000	    0.00000	 69.0	 1	    1.10000	    0.90000;
	237	 1	 25.02	 2.53	 0.0	 0.0	 1	    1.00000	    0.00000	 69.0	 1	    1.10000	    0.90000;
	239	 1	 7.47	 1.33	 0.0	 0.0	 1	    1.00000	    0.00000	 69.0	 1	    1.10000	    0.90000;
	240	 1	 6.88	 0.69	 0.0	 0.0	 1	    1.00000	    0.00000	 69.0	 1	    1.10000	    0.90000;
	241	 1	 5.51	 0.98	 0.0	 0.0	 1	    1.00000	    0.00000	 69.0	 1	    1.10000	    0.90000;
	243	 1	 7.21	 1.29	 0.0	 0.0	 1	    1.00000	    0.00000	 69.0	 1	    1.10000	    0.90000;
	244	 1	 3.69	 0.37	 0.0	 0.0	 1	    1.00000	    0.00000	 69.0	 1	    1.10000	    0.90000;
...
];

%% generator data
%	bus	Pg	Qg	Qmax	Qmin	Vg	mBase	status	Pmax	Pmin
mpc.gen = [
	2	 287.5	 34.75	 222.8	 -153.3	 1.0	 100.0	 1	 475.0	 100.0;
	11	 38.5	 9.6	 41.5	 -22.3	 1.0	 100.0	 1	 67.0	 10.0;
	19	 36.1	 5.35	 23.1	 -12.4	 1.0	 100.0	 1	 37.2	 35.0;
	20	 18.65	 0.0	 0.0	 0.0	 1.0	 100.0	 1	 31.3	 6.0;
	21	 4.215	 0.85	 4.25	 -2.55	 1.0	 100.0	 1	 7.63	 0.8;
	21	 4.215	 0.85	 4.25	 -2.55	 1.0	 100.0	 1	 7.63	 0.8;
	21	 4.215	 0.85	 4.25	 -2.55	 1.0	 100.0	 1	 7.63	 0.8;
	21	 4.215	 0.85	 4.25	 -2.55	 1.0	 100.0	 1	 7.63	 0.8;
	24	 17.75	 0.0	 5.2	 -5.2	 1.0	 100.0	 1	 25.7	 9.8;
	25	 23.5	 5.0	 18.0	 -8.0	 1.0	 100.0	 1	 24.0	 23.0;
	26	 19.1	 3.35	 14.4	 -7.7	 1.0	 100.0	 1	 23.2	 15.0;
	26	 19.1	 3.35	 14.4	 -7.7	 1.0	 100.0	 1	 23.2	 15.0;
	26	 19.1	 3.35	 14.4	 -7.7	 1.0	 100.0	 1	 23.2	 15.0;
	29	 19.6	 3.1	 13.5	 -7.3	 1.0	 100.0	 1	 21.8	 17.4;
	30	 13.8	 3.95	 14.6	 -6.7	 1.0	 100.0	 1	 20.2	 7.4;
	31	 21.85	 3.6	 15.5	 -8.3	 1.0	 100.0	 1	 25.0	 18.7;
	53	 51.45	 8.3	 35.9	 -19.3	 1.0	 100.0	 1	 57.9	 45.0;
	53	 18.55	 3.9	 16.8	 -9.0	 1.0	 100.0	 1	 27.1	 10.0;
	55	 25.05	 3.5	 22.3	 -15.3	 1.0	 100.0	 1	 46.0	 4.1;
	57	 9.6	 2.035	 8.8	 -4.73	 1.0	 100.0	 1	 14.2	 5.0;
	57	 9.6	 2.035	 8.8	 -4.73	 1.0	 100.0	 1	 14.2	 5.0;
	57	 9.6	 2.035	 8.8	 -4.73	 1.0	 100.0	 1	 14.2	 5.0;
	62	 6.665	 2.3	 8.27	 -3.67	 1.0	 100.0	 1	 11.0	 2.33;
	62	 6.665	 2.3	 8.27	 -3.67	 1.0	 100.0	 1	 11.0	 2.33;
	62	 6.665	 2.3	 8.27	 -3.67	 1.0	 100.0	 1	 11.0	 2.33;
	63	 5.915	 2.265	 8.13	 -3.6	 1.0	 100.0	 1	 10.83	 1.0;
	63	 5.915	 2.265	 8.13	 -3.6	 1.0	 100.0	 1	 10.83	 1.0;
	63	 5.915	 2.265	 8.13	 -3.6	 1.0	 100.0	 1	 10.83	 1.0;
	65	 4.4	 0.975	 4.22	 -2.27	 1.0	 100.0	 1	 6.8	 2.0;
	65	 6.0	 1.575	 6.8	 -3.65	 1.0	 100.0	 1	 11.0	 1.0;
	65	 4.4	 0.975	 4.22	 -2.27	 1.0	 100.0	 1	 6.8	 2.0;
	65	 4.4	 0.975	 4.22	 -2.27	 1.0	 100.0	 1	 6.8	 2.0;
	65	 4.4	 0.975	 4.22	 -2.27	 1.0	 100.0	 1	 6.8	 2.0;
	65	 4.4	 0.975	 4.22	 -2.27	 1.0	 100.0	 1	 6.8	 2.0;
	65	 4.4	 0.975	 4.22	 -2.27	 1.0	 100.0	 1	 6.8	 2.0;
	65	 9.25	 1.8	 7.75	 -4.15	 1.0	 100.0	 1	 12.5	 6.0;
	65	 9.25	 1.8	 7.75	 -4.15	 1.0	 100.0	 1	 12.5	 6.0;
	65	 6.0	 1.575	 6.8	 -3.65	 1.0	 100.0	 1	 11.0	 1.0;
	66	 21.85	 5.15	 18.5	 -8.2	 1.0	 100.0	 1	 24.7	 19.0;
	68	 3.865	 0.0	 0.0	 0.0	 1.0	 100.0	 1	 7.63	 0.1;
	68	 3.865	 0.0	 0.0	 0.0	 1.0	 100.0	 1	 7.63	 0.1;
	68	 3.865	 0.0	 0.0	 0.0	 1.0	 100.0	 1	 7.63	 0.1;
	70	 17.6	 1.6	 10.3	 -7.1	 1.0	 100.0	 1	 21.2	 14.0;
	73	 6.425	 1.2	 5.75	 -3.35	 1.0	 100.0	 1	 10.0	 2.85;
	73	 6.425	 1.2	 5.75	 -3.35	 1.0	 100.0	 1	 10.0	 2.85;
	76	 132.2	 25.7	 111.2	 -59.8	 1.0	 100.0	 1	 179.4	 85.0;
	76	 70.05	 13.6	 58.9	 -31.7	 1.0	 100.0	 1	 95.1	 45.0;
	79	 53.8	 9.2	 52.6	 -34.2	 1.0	 100.0	 1	 102.6	 5.0;
	91	 26.25	 7.8	 28.1	 -12.5	 1.0	 100.0	 1	 37.5	 15.0;
	97	 16.75	 3.9	 17.0	 -9.2	 1.0	 100.0	 1	 27.5	 6.0;
	101	 15.15	 3.65	 15.7	 -8.4	 1.0	 100.0	 1	 25.3	 5.0;
	102	 17.0	 1.9	 12.1	 -8.3	 1.0	 100.0	 1	 25.0	 9.0;
	102	 17.0	 1.9	 12.1	 -8.3	 1.0	 100.0	 1	 25.0	 9.0;
	102	 19.0	 2.25	 14.5	 -10.0	 1.0	 100.0	 1	 30.0	 8.0;
	112	 20.0	 5.25	 18.8	 -8.3	 1.0	 100.0	 1	 25.0	 15.0;
	113	 12.0	 0.0	 9.5	 -9.5	 1.0	 100.0	 1	 24.0	 0.0;
	114	 11.0	 1.5	 9.7	 -6.7	 1.0	 100.0	 1	 20.0	 2.0;
	123	 37.25	 4.5	 28.8	 -19.8	 1.0	 100.0	 1	 59.5	 15.0;
	126	 7.4	 0.0	 5.6	 -5.6	 1.0	 100.0	 1	 11.87	 2.93;
	126	 7.4	 0.0	 5.6	 -5.6	 1.0	 100.0	 1	 11.87	 2.93;
	126	 7.4	 0.0	 5.6	 -5.6	 1.0	 100.0	 1	 11.87	 2.93;
	128	 9.6	 2.335	 8.4	 -3.73	 1.0	 100.0	 1	 11.2	 8.0;
	128	 9.6	 2.335	 8.4	 -3.73	 1.0	 100.0	 1	 11.2	 8.0;
	128	 9.6	 2.335	 8.4	 -3.73	 1.0	 100.0	 1	 11.2	 8.0;
	129	 15.25	 3.65	 15.8	 -8.5	 1.0	 100.0	 1	 25.5	 5.0;
	75436	 265.0	 57.3	 247.9	 -133.3	 1.0	 100.0	 1	 400.0	 130.0;
	75436	 110.84	 23.35	 101.0	 -54.3	 1.0	 100.0	 1	 163.0	 58.68;
	75437	 224.5	 41.4	 179.1	 -96.3	 1.0	 100.0	 1	 289.0	 160.0;
	75437	 224.5	 41.4	 179.1	 -96.3	 1.0	 100.0	 1	 289.0	 160.0;
	75439	 212.5	 40.1	 173.5	 -93.3	 1.0	 100.0	 1	 280.0	 145.0;
	75439	 212.5	 40.1	 173.5	 -93.3	 1.0	 100.0	 1	 280.0	 145.0;
	75439	 212.5	 40.1	 173.5	 -93.3	 1.0	 100.0	 1	 280.0	 145.0;
	75441	 137.7	 25.8	 111.6	 -60.0	 1.0	 100.0	 1	 180.0	 95.4;
	75441	 130.05	 24.35	 105.4	 -56.7	 1.0	 100.0	 1	 170.0	 90.1;
	75441	 130.05	 24.35	 105.4	 -56.7	 1.0	 100.0	 1	 170.0	 90.1;
	75443	 172.0	 34.3	 148.4	 -79.8	 1.0	 100.0	 1	 244.0	 100.0;
	75443	 83.5	 16.25	 70.4	 -37.9	 1.0	 100.0	 1	 122.0	 45.0;
	75443	 269.95	 31.3	 200.9	 -138.3	 1.0	 100.0	 1	 414.9	 125.0;
	75444	 73.0	 20.0	 72.0	 -32.0	 1.0	 100.0	 1	 96.0	 50.0;
	75445	 62.0	 0.0	 27.6	 -27.6	 1.0	 100.0	 1	 84.0	 40.0;
	75448	 269.95	 31.3	 200.9	 -138.3	 1.0	 100.0	 1	 414.9	 125.0;
	75448	 57.5	 15.65	 56.3	 -25.0	 1.0	 100.0	 1	 75.0	 40.0;
	75450	 39.75	 8.65	 37.5	 -20.2	 1.0	 100.0	 1	 60.5	 19.0;
	75450	 39.75	 8.65	 37.5	 -20.2	 1.0	 100.0	 1	 60.5	 19.0;
	75450	 39.75	 8.65	 37.5	 -20.2	 1.0	 100.0	 1	 60.5	 19.0;
	75450	 39.75	 8.65	 37.5	 -20.2	 1.0	 100.0	 1	 60.5	 19.0;
	75452	 29.5	 5.75	 24.8	 -13.3	 1.0	 100.0	 1	 44.0	 15.0;
	75452	 36.0	 8.0	 34.7	 -18.7	 1.0	 100.0	 1	 56.0	 16.0;
	75453	 33.5	 7.3	 31.6	 -17.0	 1.0	 100.0	 1	 51.0	 16.0;
	75453	 33.5	 7.3	 31.6	 -17.0	 1.0	 100.0	 1	 51.0	 16.0;
	75453	 33.5	 7.3	 31.6	 -17.0	 1.0	 100.0	 1	 51.0	 16.0;
	75453	 33.5	 7.3	 31.6	 -17.0	 1.0	 100.0	 1	 51.0	 16.0;
	75454	 26.0	 7.15	 31.0	 -16.7	 1.0	 100.0	 1	 50.0	 2.0;
	75454	 26.0	 7.15	 31.0	 -16.7	 1.0	 100.0	 1	 50.0	 2.0;
	75454	 26.0	 7.15	 31.0	 -16.7	 1.0	 100.0	 1	 50.0	 2.0;
	75454	 26.0	 7.15	 31.0	 -16.7	 1.0	 100.0	 1	 50.0	 2.0;
	75454	 26.0	 7.15	 31.0	 -16.7	 1.0	 100.0	 1	 50.0	 2.0;
	75455	 33.5	 3.4	 21.8	 -15.0	 1.0	 100.0	 1	 45.0	 22.0;
	75455	 33.5	 9.4	 33.8	 -15.0	 1.0	 100.0	 1	 45.0	 22.0;
	75456	 34.55	 3.35	 21.4	 -14.7	 1.0	 100.0	 1	 44.1	 25.0;
	75456	 24.5	 2.55	 16.5	 -11.4	 1.0	 100.0	 1	 44.0	 5.0;
	75457	 25.9	 3.15	 20.2	 -13.9	 1.0	 100.0	 1	 41.8	 10.0;
	75457	 25.9	 3.15	 20.2	 -13.9	 1.0	 100.0	 1	 41.8	 10.0;
	75457	 25.9	 3.15	 20.2	 -13.9	 1.0	 100.0	 1	 41.8	 10.0;
	75457	 25.9	 8.75	 31.4	 -13.9	 1.0	 100.0	 1	 41.8	 10.0;
	75458	 4.05	 0.0	 3.55	 -3.55	 1.0	 100.0	 1	 7.5	 0.6;
	75458	 4.05	 0.0	 3.55	 -3.55	 1.0	 100.0	 1	 7.5	 0.6;
	75458	 4.05	 0.0	 3.55	 -3.55	 1.0	 100.0	 1	 7.5	 0.6;
	75458	 4.05	 0.0	 3.55	 -3.55	 1.0	 100.0	 1	 7.5	 0.6;
	75459	 28.0	 3.7	 16.0	 -8.6	 1.0	 100.0	 1	 44.0	 12.0;
	75460	 18.95	 3.1	 13.5	 -7.3	 1.0	 100.0	 1	 21.8	 16.1;
	75462	 375.0	 0.0	 190.6	 -190.6	 1.0	 100.0	 1	 580.0	 170.0;
	75462	 392.5	 0.0	 240.3	 -240.3	 1.0	 100.0	 1	 585.0	 200.0;
	75464	 70.0	 6.45	 41.2	 -28.3	 1.0	 100.0	 1	 85.0	 55.0;
	75464	 62.5	 6.45	 41.2	 -28.3	 1.0	 100.0	 1	 85.0	 40.0;
	75464	 62.5	 6.45	 41.2	 -28.3	 1.0	 100.0	 1	 85.0	 40.0;
	75464	 62.5	 6.45	 41.2	 -28.3	 1.0	 100.0	 1	 85.0	 40.0;
	75464	 62.5	 6.45	 41.2	 -28.3	 1.0	 100.0	 1	 85.0	 40.0;
	75464	 62.5	 7.95	 50.9	 -35.0	 1.0	 100.0	 1	 105.0	 20.0;
	75464	 64.185	 6.725	 43.15	 -29.7	 1.0	 100.0	 1	 89.1	 39.27;
	75464	 64.185	 6.725	 43.15	 -29.7	 1.0	 100.0	 1	 89.1	 39.27;
	75464	 64.185	 6.725	 43.15	 -29.7	 1.0	 100.0	 1	 89.1	 39.27;
	75466	 260.0	 22.65	 145.3	 -100.0	 1.0	 100.0	 1	 300.0	 220.0;
	75466	 260.0	 22.65	 145.3	 -100.0	 1.0	 100.0	 1	 300.0	 220.0;
	75468	 222.0	 60.25	 216.8	 -96.3	 1.0	 100.0	 1	 289.0	 155.0;
	75469	 219.5	 41.4	 179.1	 -96.3	 1.0	 100.0	 1	 289.0	 150.0;
	75469	 219.5	 41.4	 179.1	 -96.3	 1.0	 100.0	 1	 289.0	 150.0;
	75471	 219.5	 41.4	 179.1	 -96.3	 1.0	 100.0	 1	 289.0	 150.0;
	75471	 219.5	 41.4	 179.1	 -96.3	 1.0	 100.0	 1	 289.0	 150.0;
	75474	 353.5	 46.55	 298.8	 -205.7	 1.0	 100.0	 1	 617.0	 90.0;
	75474	 209.3	 39.9	 172.7	 -92.9	 1.0	 100.0	 1	 278.6	 140.0;
	75474	 209.3	 39.9	 172.7	 -92.9	 1.0	 100.0	 1	 278.6	 140.0;
	75474	 209.3	 39.9	 172.7	 -92.9	 1.0	 100.0	 1	 278.6	 140.0;
	75474	 209.3	 39.9	 172.7	 -92.9	 1.0	 100.0	 1	 278.6	 140.0;
	75474	 195.0	 45.1	 195.2	 -105.0	 1.0	 100.0	 1	 315.0	 75.0;
	75474	 195.0	 45.1	 195.2	 -105.0	 1.0	 100.0	 1	 315.0	 75.0;
	75476	 209.3	 39.9	 172.7	 -92.9	 1.0	 100.0	 1	 278.6	 140.0;
	75476	 209.3	 39.9	 172.7	 -92.9	 1.0	 100.0	 1	 278.6	 140.0;
	75476	 195.0	 45.1	 195.2	 -105.0	 1.0	 100.0	 1	 315.0	 75.0;
	75478	 17.0	 2.85	 12.4	 -6.7	 1.0	 100.0	 1	 20.0	 14.0;
	75478	 20.6	 3.9	 16.9	 -9.1	 1.0	 100.0	 1	 27.2	 14.0;
	75478	 14.0	 4.8	 17.3	 -7.7	 1.0	 100.0	 1	 23.0	 5.0;
	75478	 61.265	 12.98	 54.13	 -28.17	 1.0	 100.0	 1	 84.53	 38.0;
	75478	 61.265	 12.98	 54.13	 -28.17	 1.0	 100.0	 1	 84.53	 38.0;
	75478	 61.265	 12.98	 54.13	 -28.17	 1.0	 100.0	 1	 84.53	 38.0;
	75478	 138.1	 26.65	 115.4	 -62.1	 1.0	 100.0	 1	 186.2	 90.0;
	75480	 262.75	 35.9	 230.3	 -158.5	 1.0	 100.0	 1	 475.5	 50.0;
	75480	 170.5	 18.2	 116.7	 -80.3	 1.0	 100.0	 1	 241.0	 100.0;
	75480	 170.5	 18.2	 116.7	 -80.3	 1.0	 100.0	 1	 241.0	 100.0;
	75480	 496.3	 0.0	 211.2	 -211.2	 1.0	 100.0	 1	 642.6	 350.0;
	75482	 117.5	 0.0	 77.2	 -77.2	 1.0	 100.0	 1	 235.0	 0.0;
	75482	 117.5	 0.0	 77.2	 -77.2	 1.0	 100.0	 1	 235.0	 0.0;
	75482	 117.5	 0.0	 77.2	 -77.2	 1.0	 100.0	 1	 235.0	 0.0;
	75482	 117.5	 0.0	 77.2	 -77.2	 1.0	 100.0	 1	 235.0	 0.0;
	75483	 172.5	 0.0	 75.6	 -75.6	 1.0	 100.0	 1	 230.0	 115.0;
	75483	 97.5	 0.0	 42.7	 -42.7	 1.0	 100.0	 1	 130.0	 65.0;
	75484	 154.0	 28.6	 123.9	 -66.7	 1.0	 100.0	 1	 200.0	 108.0;
	75485	 98.0	 19.5	 84.3	 -45.3	 1.0	 100.0	 1	 136.0	 60.0;
	75488	 40.55	 7.0	 30.4	 -16.4	 1.0	 100.0	 1	 49.1	 32.0;
	75488	 108.45	 18.45	 79.9	 -43.0	 1.0	 100.0	 1	 128.9	 88.0;
	75490	 106.85	 0.0	 32.3	 -32.3	 1.0	 100.0	 1	 128.7	 85.0;
	75490	 106.85	 0.0	 32.3	 -32.3	 1.0	 100.0	 1	 128.7	 85.0;
	75490	 79.35	 0.0	 32.3	 -32.3	 1.0	 100.0	 1	 128.7	 30.0;
	75492	 70.45	 11.55	 50.1	 -27.0	 1.0	 100.0	 1	 80.9	 60.0;
	75492	 77.0	 12.9	 55.8	 -30.0	 1.0	 100.0	 1	 90.0	 64.0;
	75492	 77.0	 12.9	 55.8	 -30.0	 1.0	 100.0	 1	 90.0	 64.0;
	75493	 43.0	 8.3	 35.9	 -19.3	 1.0	 100.0	 1	 58.0	 28.0;
	75493	 43.0	 8.3	 35.9	 -19.3	 1.0	 100.0	 1	 58.0	 28.0;
	75493	 16.5	 1.9	 12.1	 -8.3	 1.0	 100.0	 1	 25.0	 8.0;
	75493	 56.5	 5.75	 36.8	 -25.3	 1.0	 100.0	 1	 76.0	 37.0;
	75494	 9.15	 2.15	 7.73	 -3.43	 1.0	 100.0	 1	 10.3	 8.0;
	75494	 9.15	 2.15	 7.73	 -3.43	 1.0	 100.0	 1	 10.3	 8.0;
	75494	 9.15	 2.15	 7.73	 -3.43	 1.0	 100.0	 1	 10.3	 8.0;
	75494	 9.15	 2.15	 7.73	 -3.43	 1.0	 100.0	 1	 10.3	 8.0;
	75494	 9.15	 2.15	 7.73	 -3.43	 1.0	 100.0	 1	 10.3	 8.0;
	75494	 9.15	 2.15	 7.73	 -3.43	 1.0	 100.0	 1	 10.3	 8.0;
	75496	 71.8	 16.25	 70.4	 -37.9	 1.0	 100.0	 1	 113.6	 30.0;
	75496	 42.5	 8.6	 37.2	 -20.0	 1.0	 100.0	 1	 60.0	 25.0;
	75496	 42.5	 8.6	 37.2	 -20.0	 1.0	 100.0	 1	 60.0	 25.0;
	75497	 30.35	 11.2	 40.3	 -17.9	 1.0	 100.0	 1	 53.7	 7.0;
	75498	 32.5	 6.45	 27.9	 -15.0	 1.0	 100.0	 1	 45.0	 20.0;
	75498	 32.5	 6.45	 27.9	 -15.0	 1.0	 100.0	 1	 45.0	 20.0;
	75498	 32.5	 6.45	 27.9	 -15.0	 1.0	 100.0	 1	 45.0	 20.0;
	75499	 32.85	 0.0	 13.4	 -13.4	 1.0	 100.0	 1	 40.7	 25.0;
	75499	 32.85	 0.0	 13.4	 -13.4	 1.0	 100.0	 1	 40.7	 25.0;
	75499	 32.85	 0.0	 13.4	 -13.4	 1.0	 100.0	 1	 40.7	 25.0;
	75499	 29.7	 0.0	 17.6	 -17.6	 1.0	 100.0	 1	 53.4	 6.0;
	75500	 24.15	 5.8	 25.0	 -13.4	 1.0	 100.0	 1	 40.3	 8.0;
	75501	 21.5	 2.6	 16.5	 -11.3	 1.0	 100.0	 1	 34.0	 9.0;
	75501	 35.25	 4.85	 31.2	 -21.5	 1.0	 100.0	 1	 64.5	 6.0;
	75502	 12.1	 2.45	 10.45	 -5.55	 1.0	 100.0	 1	 16.7	 7.5;
	75502	 12.1	 2.45	 10.45	 -5.55	 1.0	 100.0	 1	 16.7	 7.5;
	75503	 17.0	 1.95	 12.6	 -8.7	 1.0	 100.0	 1	 26.0	 8.0;
	75503	 17.0	 1.95	 12.6	 -8.7	 1.0	 100.0	 1	 26.0	 8.0;
	75504	 82.5	 7.15	 46.0	 -31.7	 1.0	 100.0	 1	 95.0	 70.0;
	75504	 13.0	 1.7	 11.1	 -7.7	 1.0	 100.0	 1	 23.0	 3.0;
	75504	 25.65	 4.05	 17.5	 -9.4	 1.0	 100.0	 1	 28.3	 23.0;
	75505	 35.8	 0.0	 14.3	 -14.3	 1.0	 100.0	 1	 43.6	 28.0;
	75505	 18.65	 3.05	 13.2	 -7.1	 1.0	 100.0	 1	 21.3	 16.0;
	75507	 17.7	 2.9	 12.6	 -6.8	 1.0	 100.0	 1	 20.4	 15.0;
...
];

%% generator cost data
%	2	startup	shutdown	n	c(n-1)	...	c0
mpc.gencost = [
	2	 0.0	 0.0	 3	   0.010560	  76.020000	  -2.033000;
	2	 0.0	 0.0	 3	   0.063060	  37.100000	  -1.529000;
2	0.0	0.0	3	0.2	0.004167	0.000000;
2	0.0	0.0	3	0.2	22.100000	-13.770000;
2	0.0	0.0	3	0.2	18.040000	-1.220000;
2	0.0	0.0	3	0.2	18.530000	-1.254000;
2	0.0	0.0	3	0.2	18.850000	-1.276000;
2	0.0	0.0	3	0.2	15.900000	-1.076000;
2	0.0	0.0	3	0.2	17.900000	-17.720000;
2	0.0	0.0	3	0.2	0.008333	0.000000;
2	0.0	0.0	3	0.2	51.010000	-3.819000;
2	0.0	0.0	3	0.2	53.170000	-3.980000;
2	0.0	0.0	3	0.2	56.330000	-4.217000;
2	0.0	0.0	3	0.2	0.002174	0.000000;
2	0.0	0.0	3	0.2	16.940000	-10.380000;
2	0.0	0.0	3	0.2	65.640000	-6.356000;
2	0.0	0.0	3	0.2	22.310000	-151.400000;
2	0.0	0.0	3	0.2	17.160000	-18.440000;
2	0.0	0.0	3	0.2	42.170000	-40.340000;
2	0.0	0.0	3	0.2	61.490000	-1.002000;
2	0.0	0.0	3	0.2	70.290000	-1.145000;
2	0.0	0.0	3	0.2	75.820000	-1.235000;
2	0.0	0.0	3	0.2	16.550000	-2.872000;
2	0.0	0.0	3	0.2	18.750000	-3.254000;
2	0.0	0.0	3	0.2	16.960000	-2.943000;
2	0.0	0.0	3	0.2	27.280000	-1.449000;
2	0.0	0.0	3	0.2	26.280000	-1.396000;
2	0.0	0.0	3	0.2	28.090000	-1.493000;
2	0.0	0.0	3	0.2	0.002000	0.000000;
2	0.0	0.0	3	0.2	32.160000	-1.756000;
2	0.0	0.0	3	0.2	0.002000	0.000000;
2	0.0	0.0	3	0.2	0.002000	0.000000;
2	0.0	0.0	3	0.2	0.002000	0.000000;
2	0.0	0.0	3	0.2	0.002000	0.000000;
2	0.0	0.0	3	0.2	0.002000	0.000000;
2	0.0	0.0	3	0.2	17.970000	-3.449000;
2	0.0	0.0	3	0.2	15.400000	-2.956000;
2	0.0	0.0	3	0.2	26.470000	-1.445000;
2	0.0	0.0	3	0.2	18.020000	-17.910000;
2	0.0	0.0	3	0.2	15.760000	0.000000;
2	0.0	0.0	3	0.2	19.880000	-1.055000;
2	0.0	0.0	3	0.2	19.500000	-1.035000;
2	0.0	0.0	3	0.2	15.230000	-10.110000;
2	0.0	0.0	3	0.2	32.030000	-2.150000;
2	0.0	0.0	3	0.2	27.920000	-1.874000;
	2	 0.0	 0.0	 3	   0.037220	  12.000000	  -5.305000;
2	0.0	0.0	3	0.2	20.690000	-52.960000;
	2	 0.0	 0.0	 3	   0.049880	  34.560000	  -1.461000;
2	0.0	0.0	3	0.2	41.800000	-40.870000;
2	0.0	0.0	3	0.2	42.730000	-17.010000;
2	0.0	0.0	3	0.2	38.130000	-14.560000;
2	0.0	0.0	3	0.2	44.820000	-18.830000;
2	0.0	0.0	3	0.2	39.080000	-16.420000;
2	0.0	0.0	3	0.2	42.370000	-21.820000;
2	0.0	0.0	3	0.2	38.190000	-22.000000;
2	0.0	0.0	3	0.2	0.000413	0.000000;
2	0.0	0.0	3	0.2	44.400000	-7.374000;
2	0.0	0.0	3	0.2	43.470000	-81.330000;
2	0.0	0.0	3	0.2	17.450000	-3.746000;
2	0.0	0.0	3	0.2	18.580000	-3.989000;
2	0.0	0.0	3	0.2	16.080000	-3.452000;
2	0.0	0.0	3	0.2	0.002941	0.000000;
2	0.0	0.0	3	0.2	0.002941	0.000000;
2	0.0	0.0	3	0.2	0.002941	0.000000;
2	0.0	0.0	3	0.2	62.020000	-2.892000;
	2	 0.0	 0.0	 3	   0.025120	  19.500000	  -5.348000;
	2	 0.0	 0.0	 3	   0.060000	  79.320000	  -5.745000;
	2	 0.0	 0.0	 3	   0.034660	  13.310000	  -9.977000;
	2	 0.0	 0.0	 3	   0.033970	  13.050000	  -9.779000;
	2	 0.0	 0.0	 3	   0.033510	  12.870000	  -8.388000;
	2	 0.0	 0.0	 3	   0.032200	  12.360000	  -8.060000;
	2	 0.0	 0.0	 3	   0.034890	  13.390000	  -8.733000;
	2	 0.0	 0.0	 3	   0.030230	   9.761000	  -5.096000;
	2	 0.0	 0.0	 3	   0.030610	   9.892000	  -4.882000;
	2	 0.0	 0.0	 3	   0.032350	  10.450000	  -5.159000;
	2	 0.0	 0.0	 3	   0.011340	  26.100000	  -1.835000;
2	0.0	0.0	3	0.2	28.060000	-83.490000;
	2	 0.0	 0.0	 3	   0.011050	  79.600000	  -2.301000;
2	0.0	0.0	3	0.2	23.130000	-70.470000;
2	0.0	0.0	3	0.2	19.050000	-42.420000;
	2	 0.0	 0.0	 3	   0.011330	  81.620000	  -2.360000;
2	0.0	0.0	3	0.2	100.900000	-245.500000;
2	0.0	0.0	3	0.2	63.240000	-20.350000;
2	0.0	0.0	3	0.2	52.550000	-16.910000;
2	0.0	0.0	3	0.2	59.860000	-19.260000;
2	0.0	0.0	3	0.2	51.690000	-16.640000;
2	0.0	0.0	3	0.2	22.580000	-57.200000;
2	0.0	0.0	3	0.2	24.260000	-87.310000;
2	0.0	0.0	3	0.2	63.630000	-14.580000;
2	0.0	0.0	3	0.2	52.540000	-12.040000;
2	0.0	0.0	3	0.2	62.690000	-14.370000;
2	0.0	0.0	3	0.2	51.780000	-11.870000;
2	0.0	0.0	3	0.2	19.010000	-23.560000;
2	0.0	0.0	3	0.2	19.050000	-23.620000;
2	0.0	0.0	3	0.2	15.860000	-19.650000;
2	0.0	0.0	3	0.2	16.140000	-20.000000;
2	0.0	0.0	3	0.2	16.950000	-21.010000;
2	0.0	0.0	3	0.2	43.830000	-79.770000;
2	0.0	0.0	3	0.2	49.770000	-90.570000;
2	0.0	0.0	3	0.2	20.680000	-70.290000;
2	0.0	0.0	3	0.2	22.490000	-37.750000;
2	0.0	0.0	3	0.2	61.410000	-8.323000;
2	0.0	0.0	3	0.2	64.570000	-8.752000;
2	0.0	0.0	3	0.2	56.500000	-7.658000;
2	0.0	0.0	3	0.2	59.820000	-8.108000;
2	0.0	0.0	3	0.2	31.000000	0.000000;
2	0.0	0.0	3	0.2	32.360000	0.000000;
2	0.0	0.0	3	0.2	31.070000	0.000000;
2	0.0	0.0	3	0.2	28.580000	0.000000;
2	0.0	0.0	3	0.2	18.720000	-29.820000;
2	0.0	0.0	3	0.2	55.110000	-4.023000;
	2	 0.0	 0.0	 3	   0.010880	  78.370000	  -3.101000;
	2	 0.0	 0.0	 3	   0.011110	  80.020000	  -3.594000;
2	0.0	0.0	3	0.2	15.450000	-53.420000;
2	0.0	0.0	3	0.2	18.460000	-51.800000;
2	0.0	0.0	3	0.2	16.080000	-45.140000;
2	0.0	0.0	3	0.2	18.130000	-50.890000;
2	0.0	0.0	3	0.2	17.880000	-50.200000;
2	0.0	0.0	3	0.2	16.380000	-44.190000;
2	0.0	0.0	3	0.2	37.390000	-109.600000;
2	0.0	0.0	3	0.2	36.650000	-107.400000;
2	0.0	0.0	3	0.2	34.020000	-99.690000;
	2	 0.0	 0.0	 3	   0.540300	  18.530000	 -316.200000;
	2	 0.0	 0.0	 3	   0.600900	  20.610000	 -351.700000;
	2	 0.0	 0.0	 3	   0.030950	  11.880000	  -8.446000;
	2	 0.0	 0.0	 3	   0.036970	  14.190000	  -9.579000;
	2	 0.0	 0.0	 3	   0.035770	  13.730000	  -9.269000;
	2	 0.0	 0.0	 3	   0.036080	  13.850000	  -9.350000;
	2	 0.0	 0.0	 3	   0.037580	  14.430000	  -9.738000;
	2	 0.0	 0.0	 3	   0.011250	  81.000000	  -2.428000;
	2	 0.0	 0.0	 3	   0.035300	  13.550000	  -8.404000;
	2	 0.0	 0.0	 3	   0.035510	  13.630000	  -8.454000;
	2	 0.0	 0.0	 3	   0.038240	  14.670000	  -9.104000;
	2	 0.0	 0.0	 3	   0.036310	  13.930000	  -8.645000;
	2	 0.0	 0.0	 3	   0.030530	  11.670000	  -4.168000;
	2	 0.0	 0.0	 3	   0.033580	  12.830000	  -4.585000;
	2	 0.0	 0.0	 3	   0.031690	  12.160000	  -7.544000;
	2	 0.0	 0.0	 3	   0.035130	  13.480000	  -8.366000;
	2	 0.0	 0.0	 3	   0.034120	  13.040000	  -4.659000;
2	0.0	0.0	3	0.2	60.710000	-3.584000;
2	0.0	0.0	3	0.2	18.150000	-23.840000;
2	0.0	0.0	3	0.2	19.100000	-11.720000;
2	0.0	0.0	3	0.2	16.810000	-130.800000;
2	0.0	0.0	3	0.2	15.460000	-120.300000;
2	0.0	0.0	3	0.2	16.680000	-129.800000;
2	0.0	0.0	3	0.2	26.560000	-246.800000;
	2	 0.0	 0.0	 3	   0.012970	  93.400000	  -1.972000;
	2	 0.0	 0.0	 3	   0.029090	  23.420000	  -4.714000;
	2	 0.0	 0.0	 3	   0.031820	  25.620000	  -5.157000;
	2	 0.0	 0.0	 3	   0.027140	  17.470000	 -16.710000;
	2	 0.0	 0.0	 3	   0.923300	  17.970000	   0.000000;
	2	 0.0	 0.0	 3	   0.827800	  16.110000	   0.000000;
	2	 0.0	 0.0	 3	   0.895900	  17.440000	   0.000000;
	2	 0.0	 0.0	 3	   0.923200	  17.970000	   0.000000;
2	0.0	0.0	3	0.2	25.370000	-355.900000;
2	0.0	0.0	3	0.2	24.390000	-117.600000;
2	0.0	0.0	3	0.2	25.540000	-290.300000;
2	0.0	0.0	3	0.2	27.030000	-279.800000;
2	0.0	0.0	3	0.2	20.550000	-92.670000;
2	0.0	0.0	3	0.2	23.720000	-138.500000;
2	0.0	0.0	3	0.2	21.280000	-121.000000;
2	0.0	0.0	3	0.2	25.110000	-142.800000;
2	0.0	0.0	3	0.2	26.610000	-84.330000;
2	0.0	0.0	3	0.2	23.550000	-59.890000;
2	0.0	0.0	3	0.2	21.210000	-64.210000;
2	0.0	0.0	3	0.2	21.590000	-65.360000;
2	0.0	0.0	3	0.2	18.150000	-65.390000;
2	0.0	0.0	3	0.2	20.020000	-72.150000;
2	0.0	0.0	3	0.2	19.400000	-16.620000;
2	0.0	0.0	3	0.2	20.430000	-34.500000;
2	0.0	0.0	3	0.2	0.004000	0.000000;
2	0.0	0.0	3	0.2	0.004000	0.000000;
2	0.0	0.0	3	0.2	0.004000	0.000000;
2	0.0	0.0	3	0.2	0.004000	0.000000;
2	0.0	0.0	3	0.2	0.004000	0.000000;
2	0.0	0.0	3	0.2	0.004000	0.000000;
2	0.0	0.0	3	0.2	30.790000	-67.430000;
2	0.0	0.0	3	0.2	19.430000	-68.410000;
2	0.0	0.0	3	0.2	20.230000	-71.240000;
2	0.0	0.0	3	0.2	43.980000	-62.110000;
2	0.0	0.0	3	0.2	54.960000	-11.960000;
2	0.0	0.0	3	0.2	56.110000	-12.210000;
2	0.0	0.0	3	0.2	66.530000	-14.480000;
2	0.0	0.0	3	0.2	19.390000	-60.010000;
2	0.0	0.0	3	0.2	18.490000	-57.220000;
2	0.0	0.0	3	0.2	22.370000	-69.260000;
2	0.0	0.0	3	0.2	20.670000	-49.310000;
2	0.0	0.0	3	0.2	45.920000	-43.170000;
2	0.0	0.0	3	0.2	48.820000	-37.380000;
	2	 0.0	 0.0	 3	   0.060650	  35.660000	  -1.246000;
2	0.0	0.0	3	0.2	18.300000	-10.340000;
2	0.0	0.0	3	0.2	20.950000	-11.840000;
2	0.0	0.0	3	0.2	54.640000	-3.244000;
2	0.0	0.0	3	0.2	57.590000	-3.420000;
2	0.0	0.0	3	0.2	15.440000	-72.260000;
2	0.0	0.0	3	0.2	20.660000	-12.530000;
2	0.0	0.0	3	0.2	89.880000	-44.490000;
2	0.0	0.0	3	0.2	16.680000	-42.590000;
2	0.0	0.0	3	0.2	15.200000	-11.180000;
2	0.0	0.0	3	0.2	62.100000	-3.958000;
...
];

%% storage data
%	bus	energy	energy_rating	charge_rating	discharge_rating	thermal_rating	qmin	qmax	r	x	standby_loss	status
mpc.storage = [
	426	0.0	0.0	1.00	133.5000	66.7500	48.0600	0.9	0.85	1000	-1000	1000	0.1	0.01	0	0	1;
	967	0.0	0.0	1.00	118.2600	59.1300	42.5736	0.9	0.85	1000	-1000	1000	0.1	0.01	0	0	1;
	1039	0.0	0.0	1.00	109.0200	54.5100	39.2472	0.9	0.85	1000	-1000	1000	0.1	0.01	0	0	1;
	1040	0.0	0.0	1.00	105.3750	52.6875	37.9350	0.9	0.85	1000	-1000	1000	0.1	0.01	0	0	1;
	689	0.0	0.0	1.00	97.5000	48.7500	35.1000	0.9	0.85	1000	-1000	1000	0.1	0.01	0	0	1;
	2006	0.0	0.0	1.00	95.8500	47.9250	34.5060	0.9	0.85	1000	-1000	1000	0.1	0.01	0	0	1;
	484	0.0	0.0	1.00	93.3000	46.6500	33.5880	0.9	0.85	1000	-1000	1000	0.1	0.01	0	0	1;
	424	0.0	0.0	1.00	92.3700	46.1850	33.2532	0.9	0.85	1000	-1000	1000	0.1	0.01	0	0	1;
	1252	0.0	0.0	1.00	91.2900	45.6450	32.8644	0.9	0.85	1000	-1000	1000	0.1	0.01	0	0	1;
	350	0.0	0.0	1.00	89.4450	44.7225	32.2002	0.9	0.85	1000	-1000	1000	0.1	0.01	0	0	1;
	1719	0.0	0.0	1.00	88.2600	44.1300	31.7736	0.9	0.85	1000	-1000	1000	0.1	0.01	0	0	1;
	3155	0.0	0.0	1.00	82.1850	41.0925	29.5866	0.9	0.85	1000	-1000	1000	0.1	0.01	0	0	1;
	874	0.0	0.0	1.00	77.7150	38.8575	27.9774	0.9	0.85	1000	-1000	1000	0.1	0.01	0	0	1;
	2698	0.0	0.0	1.00	76.2900	38.1450	27.4644	0.9	0.85	1000	-1000	1000	0.1	0.01	0	0	1;
	2477	0.0	0.0	1.00	75.6000	37.8000	27.2160	0.9	0.85	1000	-1000	1000	0.1	0.01	0	0	1;
	2264	0.0	0.0	1.00	70.5600	35.2800	25.4016	0.9	0.85	1000	-1000	1000	0.1	0.01	0	0	1;
	1953	0.0	0.0	1.00	70.5450	35.2725	25.3962	0.9	0.85	1000	-1000	1000	0.1	0.01	0	0	1;
	1940	0.0	0.0	1.00	70.0500	35.0250	25.2180	0.9	0.85	1000	-1000	1000	0.1	0.01	0	0	1;
	1310	0.0	0.0	1.00	69.4200	34.7100	24.9912	0.9	0.85	1000	-1000	1000	0.1	0.01	0	0	1;
	750	0.0	0.0	1.00	69.0000	34.5000	24.8400	0.9	0.85	1000	-1000	1000	0.1	0.01	0	0	1;
	3040	0.0	0.0	1.00	67.5750	33.7875	24.3270	0.9	0.85	1000	-1000	1000	0.1	0.01	0	0	1;
	273	0.0	0.0	1.00	66.8250	33.4125	24.0570	0.9	0.85	1000	-1000	1000	0.1	0.01	0	0	1;
	295	0.0	0.0	1.00	63.7350	31.8675	22.9446	0.9	0.85	1000	-1000	1000	0.1	0.01	0	0	1;
	2744	0.0	0.0	1.00	63.6300	31.8150	22.9068	0.9	0.85	1000	-1000	1000	0.1	0.01	0	0	1;
	1061	0.0	0.0	1.00	63.3450	31.6725	22.8042	0.9	0.85	1000	-1000	1000	0.1	0.01	0	0	1;
	1286	0.0	0.0	1.00	62.7600	31.3800	22.5936	0.9	0.85	1000	-1000	1000	0.1	0.01	0	0	1;
	2853	0.0	0.0	1.00	62.6400	31.3200	22.5504	0.9	0.85	1000	-1000	1000	0.1	0.01	0	0	1;
	1930	0.0	0.0	1.00	61.9350	30.9675	22.2966	0.9	0.85	1000	-1000	1000	0.1	0.01	0	0	1;
	3241	0.0	0.0	1.00	61.2000	30.6000	22.0320	0.9	0.85	1000	-1000	1000	0.1	0.01	0	0	1;
	2911	0.0	0.0	1.00	61.1850	30.5925	22.0266	0.9	0.85	1000	-1000	1000	0.1	0.01	0	0	1;
	1110	0.0	0.0	1.00	61.1400	30.5700	22.0104	0.9	0.85	1000	-1000	1000	0.1	0.01	0	0	1;
	1785	0.0	0.0	1.00	60.8100	30.4050	21.8916	0.9	0.85	1000	-1000	1000	0.1	0.01	0	0	1;
	2446	0.0	0.0	1.00	59.5650	29.7825	21.4434	0.9	0.85	1000	-1000	1000	0.1	0.01	0	0	1;
	1090	0.0	0.0	1.00	59.5350	29.7675	21.4326	0.9	0.85	1000	-1000	1000	0.1	0.01	0	0	1;
	1038	0.0	0.0	1.00	58.7700	29.3850	21.1572	0.9	0.85	1000	-1000	1000	0.1	0.01	0	0	1;
	2428	0.0	0.0	1.00	58.3350	29.1675	21.0006	0.9	0.85	1000	-1000	1000	0.1	0.01	0	0	1;
	1477	0.0	0.0	1.00	57.7950	28.8975	20.8062	0.9	0.85	1000	-1000	1000	0.1	0.01	0	0	1;
	2476	0.0	0.0	1.00	57.7650	28.8825	20.7954	0.9	0.85	1000	-1000	1000	0.1	0.01	0	0	1;
	1002	0.0	0.0	1.00	56.9850	28.4925	20.5146	0.9	0.85	1000	-1000	1000	0.1	0.01	0	0	1;
	1693	0.0	0.0	1.00	56.6400	28.3200	20.3904	0.9	0.85	1000	-1000	1000	0.1	0.01	0	0	1;
	1665	0.0	0.0	1.00	55.9950	27.9975	20.1582	0.9	0.85	1000	-1000	1000	0.1	0.01	0	0	1;
	2030	0.0	0.0	1.00	55.8450	27.9225	20.1042	0.9	0.85	1000	-1000	1000	0.1	0.01	0	0	1;
	2031	0.0	0.0	1.00	55.3050	27.6525	19.9098	0.9	0.85	1000	-1000	1000	0.1	0.01	0	0	1;
	503	0.0	0.0	1.00	54.9900	27.4950	19.7964	0.9	0.85	1000	-1000	1000	0.1	0.01	0	0	1;
	311	0.0	0.0	1.00	53.4000	26.7000	19.2240	0.9	0.85	1000	-1000	1000	0.1	0.01	0	0	1;
	160	0.0	0.0	1.00	53.1450	26.5725	19.1322	0.9	0.85	1000	-1000	1000	0.1	0.01	0	0	1;
	2909	0.0	0.0	1.00	53.1000	26.5500	19.1160	0.9	0.85	1000	-1000	1000	0.1	0.01	0	0	1;
	1789	0.0	0.0	1.00	52.5000	26.2500	18.9000	0.9	0.85	1000	-1000	1000	0.1	0.01	0	0	1;
	1367	0.0	0.0	1.00	52.3050	26.1525	18.8298	0.9	0.85	1000	-1000	1000	0.1	0.01	0	0	1;
	906	0.0	0.0	1.00	52.0650	26.0325	18.7434	0.9	0.85	1000	-1000	1000	0.1	0.01	0	0	1;
	1355	0.0	0.0	1.00	52.0650	26.0325	18.7434	0.9	0.85	1000	-1000	1000	0.1	0.01	0	0	1;
	1261	0.0	0.0	1.00	51.9600	25.9800	18.7056	0.9	0.85	1000	-1000	1000	0.1	0.01	0	0	1;
	492	0.0	0.0	1.00	51.9300	25.9650	18.6948	0.9	0.85	1000	-1000	1000	0.1	0.01	0	0	1;
	397	0.0	0.0	1.00	51.6900	25.8450	18.6084	0.9	0.85	1000	-1000	1000	0.1	0.01	0	0	1;
	3130	0.0	0.0	1.00	51.6000	25.8000	18.5760	0.9	0.85	1000	-1000	1000	0.1	0.01	0	0	1;
	1177	0.0	0.0	1.00	50.7870	25.3935	18.2833	0.9	0.85	1000	-1000	1000	0.1	0.01	0	0	1;
	267	0.0	0.0	1.00	50.5800	25.2900	18.2088	0.9	0.85	1000	-1000	1000	0.1	0.01	0	0	1;
	1421	0.0	0.0	1.00	50.3250	25.1625	18.1170	0.9	0.85	1000	-1000	1000	0.1	0.01	0	0	1;
	1462	0.0	0.0	1.00	49.9500	24.9750	17.9820	0.9	0.85	1000	-1000	1000	0.1	0.01	0	0	1;
	1133	0.0	0.0	1.00	49.1850	24.5925	17.7066	0.9	0.85	1000	-1000	1000	0.1	0.01	0	0	1;
	2606	0.0	0.0	1.00	48.8100	24.4050	17.5716	0.9	0.85	1000	-1000	1000	0.1	0.01	0	0	1;
	652	0.0	0.0	1.00	48.6450	24.3225	17.5122	0.9	0.85	1000	-1000	1000	0.1	0.01	0	0	1;
	976	0.0	0.0	1.00	48.5550	24.2775	17.4798	0.9	0.85	1000	-1000	1000	0.1	0.01	0	0	1;
	2106	0.0	0.0	1.00	48.1350	24.0675	17.3286	0.9	0.85	1000	-1000	1000	0.1	0.01	0	0	1;
	2974	0.0	0.0	1.00	48.0600	24.0300	17.3016	0.9	0.85	1000	-1000	1000	0.1	0.01	0	0	1;
	1920	0.0	0.0	1.00	47.5950	23.7975	17.1342	0.9	0.85	1000	-1000	1000	0.1	0.01	0	0	1;
	2057	0.0	0.0	1.00	47.5800	23.7900	17.1288	0.9	0.85	1000	-1000	1000	0.1	0.01	0	0	1;
	1438	0.0	0.0	1.00	47.3250	23.6625	17.0370	0.9	0.85	1000	-1000	1000	0.1	0.01	0	0	1;
	1247	0.0	0.0	1.00	47.2650	23.6325	17.0154	0.9	0.85	1000	-1000	1000	0.1	0.01	0	0	1;
	1919	0.0	0.0	1.00	47.2650	23.6325	17.0154	0.9	0.85	1000	-1000	1000	0.1	0.01	0	0	1;
	234	0.0	0.0	1.00	47.0400	23.5200	16.9344	0.9	0.85	1000	-1000	1000	0.1	0.01	0	0	1;
	1240	0.0	0.0	1.00	46.4100	23.2050	16.7076	0.9	0.85	1000	-1000	1000	0.1	0.01	0	0	1;
	309	0.0	0.0	1.00	45.3300	22.6650	16.3188	0.9	0.85	1000	-1000	1000	0.1	0.01	0	0	1;
	2038	0.0	0.0	1.00	44.6400	22.3200	16.0704	0.9	0.85	1000	-1000	1000	0.1	0.01	0	0	1;
	527	0.0	0.0	1.00	44.5800	22.2900	16.0488	0.9	0.85	1000	-1000	1000	0.1	0.01	0	0	1;
	3482	0.0	0.0	1.00	44.4750	22.2375	16.0110	0.9	0.85	1000	-1000	1000	0.1	0.01	0	0	1;
	1951	0.0	0.0	1.00	44.3250	22.1625	15.9570	0.9	0.85	1000	-1000	1000	0.1	0.01	0	0	1;
	1212	0.0	0.0	1.00	44.3100	22.1550	15.9516	0.9	0.85	1000	-1000	1000	0.1	0.01	0	0	1;
	1420	0.0	0.0	1.00	44.0400	22.0200	15.8544	0.9	0.85	1000	-1000	1000	0.1	0.01	0	0	1;
	2234	0.0	0.0	1.00	43.6500	21.8250	15.7140	0.9	0.85	1000	-1000	1000	0.1	0.01	0	0	1;
	1518	0.0	0.0	1.00	43.2450	21.6225	15.5682	0.9	0.85	1000	-1000	1000	0.1	0.01	0	0	1;
	447	0.0	0.0	1.00	43.0950	21.5475	15.5142	0.9	0.85	1000	-1000	1000	0.1	0.01	0	0	1;
	2780	0.0	0.0	1.00	42.9450	21.4725	15.4602	0.9	0.85	1000	-1000	1000	0.1	0.01	0	0	1;
	841	0.0	0.0	1.00	42.3750	21.1875	15.2550	0.9	0.85	1000	-1000	1000	0.1	0.01	0	0	1;
	1208	0.0	0.0	1.00	42.2850	21.1425	15.2226	0.9	0.85	1000	-1000	1000	0.1	0.01	0	0	1;
	1771	0.0	0.0	1.00	42.2850	21.1425	15.2226	0.9	0.85	1000	-1000	1000	0.1	0.01	0	0	1;
	2121	0.0	0.0	1.00	42.1950	21.0975	15.1902	0.9	0.85	1000	-1000	1000	0.1	0.01	0	0	1;
	2852	0.0	0.0	1.00	42.0450	21.0225	15.1362	0.9	0.85	1000	-1000	1000	0.1	0.01	0	0	1;
	2268	0.0	0.0	1.00	41.9550	20.9775	15.1038	0.9	0.85	1000	-1000	1000	0.1	0.01	0	0	1;
	2495	0.0	0.0	1.00	41.7000	20.8500	15.0120	0.9	0.85	1000	-1000	1000	0.1	0.01	0	0	1;
	2625	0.0	0.0	1.00	41.6400	20.8200	14.9904	0.9	0.85	1000	-1000	1000	0.1	0.01	0	0	1;
	2040	0.0	0.0	1.00	41.6250	20.8125	14.9850	0.9	0.85	1000	-1000	1000	0.1	0.01	0	0	1;
	2228	0.0	0.0	1.00	41.6100	20.8050	14.9796	0.9	0.85	1000	-1000	1000	0.1	0.01	0	0	1;
	271	0.0	0.0	1.00	41.3550	20.6775	14.8878	0.9	0.85	1000	-1000	1000	0.1	0.01	0	0	1;
	1087	0.0	0.0	1.00	41.0850	20.5425	14.7906	0.9	0.85	1000	-1000	1000	0.1	0.01	0	0	1;
	1601	0.0	0.0	1.00	40.9500	20.4750	14.7420	0.9	0.85	1000	-1000	1000	0.1	0.01	0	0	1;
	1273	0.0	0.0	1.00	40.7550	20.3775	14.6718	0.9	0.85	1000	-1000	1000	0.1	0.01	0	0	1;
	457	0.0	0.0	1.00	40.7100	20.3550	14.6556	0.9	0.85	1000	-1000	1000	0.1	0.01	0	0	1;
	2890	0.0	0.0	1.00	40.4550	20.2275	14.5638	0.9	0.85	1000	-1000	1000	0.1	0.01	0	0	1;
	1037	0.0	0.0	1.00	40.1700	20.0850	14.4612	0.9	0.85	1000	-1000	1000	0.1	0.01	0	0	1;
	3107	0.0	0.0	1.00	39.7200	19.8600	14.2992	0.9	0.85	1000	-1000	1000	0.1	0.01	0	0	1;
	1551	0.0	0.0	1.00	39.6900	19.8450	14.2884	0.9	0.85	1000	-1000	1000	0.1	0.01	0	0	1;
	2253	0.0	0.0	1.00	39.6750	19.8375	14.2830	0.9	0.85	1000	-1000	1000	0.1	0.01	0	0	1;
	1801	0.0	0.0	1.00	39.6450	19.8225	14.2722	0.9	0.85	1000	-1000	1000	0.1	0.01	0	0	1;
	888	0.0	0.0	1.00	39.2850	19.6425	14.1426	0.9	0.85	1000	-1000	1000	0.1	0.01	0	0	1;
	1442	0.0	0.0	1.00	39.1200	19.5600	14.0832	0.9	0.85	1000	-1000	1000	0.1	0.01	0	0	1;
	1288	0.0	0.0	1.00	39.0300	19.5150	14.0508	0.9	0.85	1000	-1000	1000	0.1	0.01	0	0	1;
	3362	0.0	0.0	1.00	38.9850	19.4925	14.0346	0.9	0.85	1000	-1000	1000	0.1	0.01	0	0	1;
	1300	0.0	0.0	1.00	38.9100	19.4550	14.0076	0.9	0.85	1000	-1000	1000	0.1	0.01	0	0	1;
	953	0.0	0.0	1.00	38.8650	19.4325	13.9914	0.9	0.85	1000	-1000	1000	0.1	0.01	0	0	1;
	2026	0.0	0.0	1.00	38.6550	19.3275	13.9158	0.9	0.85	1000	-1000	1000	0.1	0.01	0	0	1;
	2628	0.0	0.0	1.00	38.5650	19.2825	13.8834	0.9	0.85	1000	-1000	1000	0.1	0.01	0	0	1;
	1901	0.0	0.0	1.00	38.5200	19.2600	13.8672	0.9	0.85	1000	-1000	1000	0.1	0.01	0	0	1;
	1447	0.0	0.0	1.00	38.5050	19.2525	13.8618	0.9	0.85	1000	-1000	1000	0.1	0.01	0	0	1;
	2676	0.0	0.0	1.00	38.3850	19.1925	13.8186	0.9	0.85	1000	-1000	1000	0.1	0.01	0	0	1;
	2145	0.0	0.0	1.00	38.3700	19.1850	13.8132	0.9	0.85	1000	-1000	1000	0.1	0.01	0	0	1;
	537	0.0	0.0	1.00	38.0850	19.0425	13.7106	0.9	0.85	1000	-1000	1000	0.1	0.01	0	0	1;
	1584	0.0	0.0	1.00	37.9200	18.9600	13.6512	0.9	0.85	1000	-1000	1000	0.1	0.01	0	0	1;
	170	0.0	0.0	1.00	37.9050	18.9525	13.6458	0.9	0.85	1000	-1000	1000	0.1	0.01	0	0	1;
	2579	0.0	0.0	1.00	37.9050	18.9525	13.6458	0.9	0.85	1000	-1000	1000	0.1	0.01	0	0	1;
	900	0.0	0.0	1.00	37.8600	18.9300	13.6296	0.9	0.85	1000	-1000	1000	0.1	0.01	0	0	1;
	2292	0.0	0.0	1.00	37.8150	18.9075	13.6134	0.9	0.85	1000	-1000	1000	0.1	0.01	0	0	1;
	3292	0.0	0.0	1.00	37.7550	18.8775	13.5918	0.9	0.85	1000	-1000	1000	0.1	0.01	0	0	1;
	421	0.0	0.0	1.00	37.7250	18.8625	13.5810	0.9	0.85	1000	-1000	1000	0.1	0.01	0	0	1;
	2198	0.0	0.0	1.00	37.7250	18.8625	13.5810	0.9	0.85	1000	-1000	1000	0.1	0.01	0	0	1;
	2882	0.0	0.0	1.00	37.6800	18.8400	13.5648	0.9	0.85	1000	-1000	1000	0.1	0.01	0	0	1;
	470	0.0	0.0	1.00	37.6350	18.8175	13.5486	0.9	0.85	1000	-1000	1000	0.1	0.01	0	0	1;
	237	0.0	0.0	1.00	37.5300	18.7650	13.5108	0.9	0.85	1000	-1000	1000	0.1	0.01	0	0	1;
	3074	0.0	0.0	1.00	37.5150	18.7575	13.5054	0.9	0.85	1000	-1000	1000	0.1	0.01	0	0	1;
	3039	0.0	0.0	1.00	37.4250	18.7125	13.4730	0.9	0.85	1000	-1000	1000	0.1	0.01	0	0	1;
	1585	0.0	0.0	1.00	37.3950	18.6975	13.4622	0.9	0.85	1000	-1000	1000	0.1	0.01	0	0	1;
	1138	0.0	0.0	1.00	37.3800	18.6900	13.4568	0.9	0.85	1000	-1000	1000	0.1	0.01	0	0	1;
	2039	0.0	0.0	1.00	37.0200	18.5100	13.3272	0.9	0.85	1000	-1000	1000	0.1	0.01	0	0	1;
	1691	0.0	0.0	1.00	36.8700	18.4350	13.2732	0.9	0.85	1000	-1000	1000	0.1	0.01	0	0	1;
	2939	0.0	0.0	1.00	36.4650	18.2325	13.1274	0.9	0.85	1000	-1000	1000	0.1	0.01	0	0	1;
	2836	0.0	0.0	1.00	35.8200	17.9100	12.8952	0.9	0.85	1000	-1000	1000	0.1	0.01	0	0	1;
	2422	0.0	0.0	1.00	35.7300	17.8650	12.8628	0.9	0.85	1000	-1000	1000	0.1	0.01	0	0	1;
	312	0.0	0.0	1.00	35.6700	17.8350	12.8412	0.9	0.85	1000	-1000	1000	0.1	0.01	0	0	1;
	1889	0.0	0.0	1.00	35.6700	17.8350	12.8412	0.9	0.85	1000	-1000	1000	0.1	0.01	0	0	1;
	3047	0.0	0.0	1.00	35.6550	17.8275	12.8358	0.9	0.85	1000	-1000	1000	0.1	0.01	0	0	1;
	2462	0.0	0.0	1.00	35.4900	17.7450	12.7764	0.9	0.85	1000	-1000	1000	0.1	0.01	0	0	1;
	2423	0.0	0.0	1.00	35.3700	17.6850	12.7332	0.9	0.85	1000	-1000	1000	0.1	0.01	0	0	1;
	162	0.0	0.0	1.00	35.2950	17.6475	12.7062	0.9	0.85	1000	-1000	1000	0.1	0.01	0	0	1;
	731	0.0	0.0	1.00	35.1000	17.5500	12.6360	0.9	0.85	1000	-1000	1000	0.1	0.01	0	0	1;
	3374	0.0	0.0	1.00	35.0400	17.5200	12.6144	0.9	0.85	1000	-1000	1000	0.1	0.01	0	0	1;
	632	0.0	0.0	1.00	34.9950	17.4975	12.5982	0.9	0.85	1000	-1000	1000	0.1	0.01	0	0	1;
	1173	0.0	0.0	1.00	34.9650	17.4825	12.5874	0.9	0.85	1000	-1000	1000	0.1	0.01	0	0	1;
	1134	0.0	0.0	1.00	34.8750	17.4375	12.5550	0.9	0.85	1000	-1000	1000	0.1	0.01	0	0	1;
	2946	0.0	0.0	1.00	34.8600	17.4300	12.5496	0.9	0.85	1000	-1000	1000	0.1	0.01	0	0	1;
	3005	0.0	0.0	1.00	34.8450	17.4225	12.5442	0.9	0.85	1000	-1000	1000	0.1	0.01	0	0	1;
	263	0.0	0.0	1.00	34.8150	17.4075	12.5334	0.9	0.85	1000	-1000	1000	0.1	0.01	0	0	1;
	1249	0.0	0.0	1.00	34.7100	17.3550	12.4956	0.9	0.85	1000	-1000	1000	0.1	0.01	0	0	1;
	1179	0.0	0.0	1.00	34.6605	17.3302	12.4778	0.9	0.85	1000	-1000	1000	0.1	0.01	0	0	1;
	2901	0.0	0.0	1.00	34.5600	17.2800	12.4416	0.9	0.85	1000	-1000	1000	0.1	0.01	0	0	1;
	1214	0.0	0.0	1.00	34.5300	17.2650	12.4308	0.9	0.85	1000	-1000	1000	0.1	0.01	0	0	1;
	1157	0.0	0.0	1.00	34.4700	17.2350	12.4092	0.9	0.85	1000	-1000	1000	0.1	0.01	0	0	1;
	343	0.0	0.0	1.00	34.3800	17.1900	12.3768	0.9	0.85	1000	-1000	1000	0.1	0.01	0	0	1;
	1412	0.0	0.0	1.00	34.3050	17.1525	12.3498	0.9	0.85	1000	-1000	1000	0.1	0.01	0	0	1;
	2296	0.0	0.0	1.00	34.0350	17.0175	12.2526	0.9	0.85	1000	-1000	1000	0.1	0.01	0	0	1;
	1946	0.0	0.0	1.00	33.9750	16.9875	12.2310	0.9	0.85	1000	-1000	1000	0.1	0.01	0	0	1;
	1753	0.0	0.0	1.00	33.8400	16.9200	12.1824	0.9	0.85	1000	-1000	1000	0.1	0.01	0	0	1;
	2357	0.0	0.0	1.00	33.8250	16.9125	12.1770	0.9	0.85	1000	-1000	1000	0.1	0.01	0	0	1;
	974	0.0	0.0	1.00	33.6450	16.8225	12.1122	0.9	0.85	1000	-1000	1000	0.1	0.01	0	0	1;
	3433	0.0	0.0	1.00	33.5700	16.7850	12.0852	0.9	0.85	1000	-1000	1000	0.1	0.01	0	0	1;
	3008	0.0	0.0	1.00	33.3600	16.6800	12.0096	0.9	0.85	1000	-1000	1000	0.1	0.01	0	0	1;
	2694	0.0	0.0	1.00	33.2700	16.6350	11.9772	0.9	0.85	1000	-1000	1000	0.1	0.01	0	0	1;
	1602	0.0	0.0	1.00	33.2250	16.6125	11.9610	0.9	0.85	1000	-1000	1000	0.1	0.01	0	0	1;
	2637	0.0	0.0	1.00	33.0750	16.5375	11.9070	0.9	0.85	1000	-1000	1000	0.1	0.01	0	0	1;
	3459	0.0	0.0	1.00	33.0600	16.5300	11.9016	0.9	0.85	1000	-1000	1000	0.1	0.01	0	0	1;
	2081	0.0	0.0	1.00	33.0000	16.5000	11.8800	0.9	0.85	1000	-1000	1000	0.1	0.01	0	0	1;
	1141	0.0	0.0	1.00	32.8800	16.4400	11.8368	0.9	0.85	1000	-1000	1000	0.1	0.01	0	0	1;
	2305	0.0	0.0	1.00	32.6700	16.3350	11.7612	0.9	0.85	1000	-1000	1000	0.1	0.01	0	0	1;
	2223	0.0	0.0	1.00	32.6250	16.3125	11.7450	0.9	0.85	1000	-1000	1000	0.1	0.01	0	0	1;
	2612	0.0	0.0	1.00	32.6250	16.3125	11.7450	0.9	0.85	1000	-1000	1000	0.1	0.01	0	0	1;
	563	0.0	0.0	1.00	32.5800	16.2900	11.7288	0.9	0.85	1000	-1000	1000	0.1	0.01	0	0	1;
	3174	0.0	0.0	1.00	32.5800	16.2900	11.7288	0.9	0.85	1000	-1000	1000	0.1	0.01	0	0	1;
	3060	0.0	0.0	1.00	32.4300	16.2150	11.6748	0.9	0.85	1000	-1000	1000	0.1	0.01	0	0	1;
	434	0.0	0.0	1.00	32.2950	16.1475	11.6262	0.9	0.85	1000	-1000	1000	0.1	0.01	0	0	1;
	2311	0.0	0.0	1.00	32.2200	16.1100	11.5992	0.9	0.85	1000	-1000	1000	0.1	0.01	0	0	1;
	3129	0.0	0.0	1.00	32.0250	16.0125	11.5290	0.9	0.85	1000	-1000	1000	0.1	0.01	0	0	1;
	2984	0.0	0.0	1.00	31.9350	15.9675	11.4966	0.9	0.85	1000	-1000	1000	0.1	0.01	0	0	1;
	2378	0.0	0.0	1.00	31.8000	15.9000	11.4480	0.9	0.85	1000	-1000	1000	0.1	0.01	0	0	1;
	2604	0.0	0.0	1.00	31.7850	15.8925	11.4426	0.9	0.85	1000	-1000	1000	0.1	0.01	0	0	1;
	2721	0.0	0.0	1.00	31.7550	15.8775	11.4318	0.9	0.85	1000	-1000	1000	0.1	0.01	0	0	1;
	664	0.0	0.0	1.00	31.6650	15.8325	11.3994	0.9	0.85	1000	-1000	1000	0.1	0.01	0	0	1;
	3325	0.0	0.0	1.00	31.6050	15.8025	11.3778	0.9	0.85	1000	-1000	1000	0.1	0.01	0	0	1;
	1595	0.0	0.0	1.00	31.4250	15.7125	11.3130	0.9	0.85	1000	-1000	1000	0.1	0.01	0	0	1;
	2770	0.0	0.0	1.00	31.3650	15.6825	11.2914	0.9	0.85	1000	-1000	1000	0.1	0.01	0	0	1;
	3121	0.0	0.0	1.00	31.3500	15.6750	11.2860	0.9	0.85	1000	-1000	1000	0.1	0.01	0	0	1;
	500	0.0	0.0	1.00	31.2750	15.6375	11.2590	0.9	0.85	1000	-1000	1000	0.1	0.01	0	0	1;
	2287	0.0	0.0	1.00	31.2150	15.6075	11.2374	0.9	0.85	1000	-1000	1000	0.1	0.01	0	0	1;
	3233	0.0	0.0	1.00	31.1850	15.5925	11.2266	0.9	0.85	1000	-1000	1000	0.1	0.01	0	0	1;
	2118	0.0	0.0	1.00	31.1700	15.5850	11.2212	0.9	0.85	1000	-1000	1000	0.1	0.01	0	0	1;
	1625	0.0	0.0	1.00	31.1400	15.5700	11.2104	0.9	0.85	1000	-1000	1000	0.1	0.01	0	0	1;
	2632	0.0	0.0	1.00	31.0050	15.5025	11.1618	0.9	0.85	1000	-1000	1000	0.1	0.01	0	0	1;
	2830	0.0	0.0	1.00	30.7050	15.3525	11.0538	0.9	0.85	1000	-1000	1000	0.1	0.01	0	0	1;
	432	0.0	0.0	1.00	30.6450	15.3225	11.0322	0.9	0.85	1000	-1000	1000	0.1	0.01	0	0	1;
	1213	0.0	0.0	1.00	30.6150	15.3075	11.0214	0.9	0.85	1000	-1000	1000	0.1	0.01	0	0	1;
	931	0.0	0.0	1.00	30.4350	15.2175	10.9566	0.9	0.85	1000	-1000	1000	0.1	0.01	0	0	1;
	2486	0.0	0.0	1.00	30.3300	15.1650	10.9188	0.9	0.85	1000	-1000	1000	0.1	0.01	0	0	1;
...
];

%% branch data
%	fbus	tbus	r	x	b	rateA	rateB	rateC	ratio	angle	status	angmin	angmax
mpc.branch = [
	1	 650	 0.0440029	 0.231829	 0.00416148	 96.0	 96.0	 96.0	 0.0	 0.0	 1	 -30.0	 30.0;
	1	 903	 0.0065188	 0.0661654	 0.00134025	 154.0	 154.0	 154.0	 0.0	 0.0	 1	 -30.0	 30.0;
	1	 905	 0.00333213	 0.0364493	 0.000759498	 162.0	 162.0	 162.0	 0.0	 0.0	 1	 -30.0	 30.0;
	2	 683	 0.00217379	 0.00836299	 0.00228418	 159.0	 159.0	 159.0	 0.0	 0.0	 1	 -30.0	 30.0;
	2	 75692	 0.000794052	 0.00603894	 0.00189761	 253.0	 259.0	 259.0	 0.0	 0.0	 1	 -30.0	 30.0;
	2	 75693	 0.00171474	 0.00963476	 0.00285464	 207.0	 211.0	 211.0	 0.0	 0.0	 1	 -30.0	 30.0;
	2	 75696	 0.000335965	 0.00356044	 0.00105683	 307.0	 307.0	 307.0	 0.0	 0.0	 1	 -30.0	 30.0;
	3	 6	 0.000176282	 0.00201502	 3.8408e-05	 162.0	 162.0	 162.0	 0.0	 0.0	 1	 -30.0	 30.0;
	3	 236	 0.000999816	 0.0101479	 0.000205553	 154.0	 154.0	 154.0	 0.0	 0.0	 1	 -30.0	 30.0;
	4	 12	 0.00416723	 0.0203445	 0.000426326	 96.0	 96.0	 96.0	 0.0	 0.0	 1	 -30.0	 30.0;
	4	 276	 0.0224763	 0.0550162	 0.000940668	 59.0	 59.0	 59.0	 0.0	 0.0	 1	 -30.0	 30.0;
	4	 279	 0.0107478	 0.0284044	 0.000415527	 59.0	 59.0	 59.0	 0.0	 0.0	 1	 -30.0	 30.0;
	4	 280	 0.00392264	 0.0429089	 0.000894099	 162.0	 162.0	 189.0	 0.0	 0.0	 1	 -30.0	 30.0;
	5	 952	 0.00413977	 0.0227157	 0.00600443	 193.0	 193.0	 193.0	 0.0	 0.0	 1	 -30.0	 30.0;
	5	 75764	 0.0101647	 0.0258509	 0.00654076	 118.0	 118.0	 118.0	 0.0	 0.0	 1	 -30.0	 30.0;
	5	 75765	 0.00107397	 0.0129703	 0.00735527	 523.0	 523.0	 523.0	 0.0	 0.0	 1	 -30.0	 30.0;
	6	 236	 0.00134834	 0.00934307	 0.000192108	 119.0	 119.0	 119.0	 0.0	 0.0	 1	 -30.0	 30.0;
	6	 237	 0.00099799	 0.0100539	 0.000247701	 162.0	 162.0	 162.0	 0.0	 0.0	 1	 -30.0	 30.0;
	6	 268	 0.00525814	 0.0231672	 0.00040241	 88.0	 88.0	 88.0	 0.0	 0.0	 1	 -30.0	 30.0;
	7	 623	 0.0164766	 0.0763537	 0.00146439	 92.0	 92.0	 92.0	 0.0	 0.0	 1	 -30.0	 30.0;
	7	 625	 0.0190739	 0.0763651	 0.00120242	 80.0	 80.0	 80.0	 0.0	 0.0	 1	 -30.0	 30.0;
	7	 630	 0.0259444	 0.0685671	 0.00100308	 59.0	 59.0	 59.0	 0.0	 0.0	 1	 -30.0	 30.0;
	7	 631	 0.0259797	 0.0737234	 0.00115837	 64.0	 64.0	 64.0	 0.0	 0.0	 1	 -30.0	 30.0;
	8	 812	 0.0016434	 0.0104086	 0.000176556	 110.0	 110.0	 110.0	 0.0	 0.0	 1	 -30.0	 30.0;
	8	 821	 0.00505125	 0.0133495	 0.00019529	 59.0	 59.0	 59.0	 0.0	 0.0	 1	 -30.0	 30.0;
	8	 822	 0.0103604	 0.0266324	 0.000412168	 59.0	 59.0	 59.0	 0.0	 0.0	 1	 -30.0	 30.0;
	8	 825	 0.0132758	 0.0478046	 0.000648196	 71.0	 71.0	 71.0	 0.0	 0.0	 1	 -30.0	 30.0;
	9	 733	 0.0267622	 0.068061	 0.00107627	 59.0	 59.0	 89.0	 0.0	 0.0	 1	 -30.0	 30.0;
	9	 753	 0.00613338	 0.015598	 0.000246653	 59.0	 59.0	 59.0	 0.0	 0.0	 1	 -30.0	 30.0;
	10	 857	 0.0494122	 0.120953	 0.00206815	 59.0	 59.0	 59.0	 0.0	 0.0	 1	 -30.0	 30.0;
	10	 900	 0.0262592	 0.0845586	 0.00144043	 71.0	 71.0	 71.0	 0.0	 0.0	 1	 -30.0	 30.0;
	10	 902	 0.0107217	 0.0283354	 0.000414519	 59.0	 59.0	 59.0	 0.0	 0.0	 1	 -30.0	 30.0;
	10	 903	 0.0503083	 0.167837	 0.00266057	 71.0	 71.0	 71.0	 0.0	 0.0	 1	 -30.0	 30.0;
	11	 217	 0.0307067	 0.0811536	 0.00118722	 59.0	 59.0	 59.0	 0.0	 0.0	 1	 -30.0	 30.0;
	11	 232	 0.00430046	 0.0261353	 0.000482141	 114.0	 124.0	 189.0	 0.0	 0.0	 1	 -30.0	 30.0;
	11	 233	 0.0023338	 0.014348	 0.000258606	 113.0	 124.0	 189.0	 0.0	 0.0	 1	 -30.0	 30.0;
	11	 234	 0.00051065	 0.00268991	 4.82743e-05	 112.0	 129.0	 189.0	 0.0	 0.0	 1	 -30.0	 30.0;
	11	 236	 0.00157611	 0.018016	 0.0003434	 162.0	 162.0	 162.0	 0.0	 0.0	 1	 -30.0	 30.0;
	12	 691	 0.0231131	 0.0536516	 0.00102157	 59.0	 59.0	 59.0	 0.0	 0.0	 1	 -30.0	 30.0;
	12	 696	 0.0122117	 0.0298908	 0.000511069	 59.0	 59.0	 119.0	 0.0	 0.0	 1	 -30.0	 30.0;
...